<?xml version="1.0" encoding="UTF-8"?>
<additional>
    <poly id="CBD_AREA" color="255,150,150,80" fill="1" layer="-10" shape="800,800 2000,800 2000,2000 800,2000"/>
</additional>
