<?xml version="1.0" encoding="UTF-8"?>

<!-- generated on 2026-04-22T23:23:57.862754+09:00 by Eclipse SUMO netgenerate 1.26.0
<netgenerateConfiguration xmlns:xsi="http://www.w3.org/2001/XMLSchema-instance" xsi:noNamespaceSchemaLocation="http://sumo.dlr.de/xsd/netgenerateConfiguration.xsd">

    <grid_network>
        <grid value="true"/>
        <grid.number value="15"/>
        <grid.length value="200"/>
    </grid_network>

    <output>
        <output-file value="src/dbspre/configs/optimal_cbd.net.xml"/>
    </output>

    <building_defaults>
        <default.lanenumber value="3"/>
        <default.speed value="11.11"/>
    </building_defaults>

    <tls_building>
        <tls.guess value="true"/>
        <tls.default-type value="actuated"/>
    </tls_building>

</netgenerateConfiguration>
-->

<net version="1.20" junctionCornerDetail="5" limitTurnSpeed="5.50" xmlns:xsi="http://www.w3.org/2001/XMLSchema-instance" xsi:noNamespaceSchemaLocation="http://sumo.dlr.de/xsd/net_file.xsd">

    <location netOffset="0.00,0.00" convBoundary="0.00,0.00,2800.00,2800.00" origBoundary="0.00,0.00,2800.00,2800.00" projParameter="!"/>

    <edge id=":A0_0" function="internal">
        <lane id=":A0_0_0" index="0" speed="11.11" length="28.38" shape="-8.00,9.60 -6.90,1.90 -3.60,-3.60 1.90,-6.90 9.60,-8.00"/>
        <lane id=":A0_0_1" index="1" speed="10.10" length="23.22" shape="-4.80,9.60 -3.90,3.30 -1.20,-1.20 3.30,-3.90 9.60,-4.80"/>
        <lane id=":A0_0_2" index="2" speed="8.96" length="18.06" shape="-1.60,9.60 -0.90,4.70 1.20,1.20 4.70,-0.90 9.60,-1.60"/>
    </edge>
    <edge id=":A0_3" function="internal">
        <lane id=":A0_3_0" index="0" speed="3.90" length="2.58" shape="9.60,8.00 8.90,8.10 8.40,8.40 8.10,8.90 8.00,9.60"/>
        <lane id=":A0_3_1" index="1" speed="6.08" length="7.74" shape="9.60,4.80 7.50,5.10 6.00,6.00 5.10,7.50 4.80,9.60"/>
        <lane id=":A0_3_2" index="2" speed="7.66" length="12.90" shape="9.60,1.60 6.10,2.10 3.60,3.60 2.10,6.10 1.60,9.60"/>
    </edge>
    <edge id=":A1_0" function="internal">
        <lane id=":A1_0_0" index="0" speed="11.11" length="27.20" shape="-8.00,213.60 -8.00,186.40"/>
        <lane id=":A1_0_1" index="1" speed="11.11" length="27.20" shape="-4.80,213.60 -4.80,186.40"/>
        <lane id=":A1_0_2" index="2" speed="11.11" length="27.20" shape="-1.60,213.60 -1.60,186.40"/>
    </edge>
    <edge id=":A1_3" function="internal">
        <lane id=":A1_3_0" index="0" speed="10.88" length="6.03" shape="-1.60,213.60 -0.89,207.62"/>
        <lane id=":A1_3_1" index="1" speed="10.36" length="5.01" shape="-1.60,213.60 -0.89,208.64"/>
    </edge>
    <edge id=":A1_5" function="internal">
        <lane id=":A1_5_0" index="0" speed="3.65" length="1.44" shape="-1.60,213.60 -0.80,212.40"/>
    </edge>
    <edge id=":A1_16" function="internal">
        <lane id=":A1_16_0" index="0" speed="10.88" length="21.12" shape="-0.89,207.62 -0.65,205.55 2.20,199.80 6.95,196.35 13.60,195.20"/>
        <lane id=":A1_16_1" index="0" speed="10.36" length="19.50" shape="-0.89,208.64 -0.65,206.95 2.20,202.20 6.95,199.35 13.60,198.40"/>
    </edge>
    <edge id=":A1_17" function="internal">
        <lane id=":A1_17_0" index="0" speed="3.65" length="3.23" shape="-0.80,212.40 0.00,212.00 0.80,212.40 1.60,213.60"/>
    </edge>
    <edge id=":A1_6" function="internal">
        <lane id=":A1_6_0" index="0" speed="6.51" length="9.03" shape="13.60,208.00 11.15,208.35 9.40,209.40 8.35,211.15 8.00,213.60"/>
        <lane id=":A1_6_1" index="1" speed="8.00" length="14.19" shape="13.60,204.80 9.75,205.35 7.00,207.00 5.35,209.75 4.80,213.60"/>
    </edge>
    <edge id=":A1_8" function="internal">
        <lane id=":A1_8_0" index="0" speed="10.88" length="27.14" shape="13.60,201.60 5.55,200.65 -0.20,197.80 -3.65,193.05 -4.80,186.40"/>
        <lane id=":A1_8_1" index="1" speed="10.36" length="24.51" shape="13.60,201.60 6.95,200.65 2.20,197.80 -0.65,193.05 -1.60,186.40"/>
    </edge>
    <edge id=":A1_10" function="internal">
        <lane id=":A1_10_0" index="0" speed="3.65" length="2.34" shape="13.60,201.60 12.40,200.80 12.00,200.00"/>
    </edge>
    <edge id=":A1_18" function="internal">
        <lane id=":A1_18_0" index="0" speed="3.65" length="2.34" shape="12.00,200.00 12.40,199.20 13.60,198.40"/>
    </edge>
    <edge id=":A1_11" function="internal">
        <lane id=":A1_11_0" index="0" speed="6.51" length="9.03" shape="8.00,186.40 8.35,188.85 9.40,190.60 11.15,191.65 13.60,192.00"/>
    </edge>
    <edge id=":A1_12" function="internal">
        <lane id=":A1_12_0" index="0" speed="11.11" length="27.20" shape="8.00,186.40 8.00,213.60"/>
        <lane id=":A1_12_1" index="1" speed="11.11" length="27.20" shape="4.80,186.40 4.80,213.60"/>
        <lane id=":A1_12_2" index="2" speed="11.11" length="27.20" shape="1.60,186.40 1.60,213.60"/>
    </edge>
    <edge id=":A1_15" function="internal">
        <lane id=":A1_15_0" index="0" speed="3.65" length="1.44" shape="1.60,186.40 0.80,187.60"/>
    </edge>
    <edge id=":A1_19" function="internal">
        <lane id=":A1_19_0" index="0" speed="3.65" length="3.23" shape="0.80,187.60 0.00,188.00 -0.80,187.60 -1.60,186.40"/>
    </edge>
    <edge id=":A10_0" function="internal">
        <lane id=":A10_0_0" index="0" speed="11.11" length="27.20" shape="-8.00,2013.60 -8.00,1986.40"/>
        <lane id=":A10_0_1" index="1" speed="11.11" length="27.20" shape="-4.80,2013.60 -4.80,1986.40"/>
        <lane id=":A10_0_2" index="2" speed="11.11" length="27.20" shape="-1.60,2013.60 -1.60,1986.40"/>
    </edge>
    <edge id=":A10_3" function="internal">
        <lane id=":A10_3_0" index="0" speed="10.88" length="6.03" shape="-1.60,2013.60 -0.89,2007.62"/>
        <lane id=":A10_3_1" index="1" speed="10.36" length="5.01" shape="-1.60,2013.60 -0.89,2008.64"/>
    </edge>
    <edge id=":A10_5" function="internal">
        <lane id=":A10_5_0" index="0" speed="3.65" length="1.44" shape="-1.60,2013.60 -0.80,2012.40"/>
    </edge>
    <edge id=":A10_16" function="internal">
        <lane id=":A10_16_0" index="0" speed="10.88" length="21.12" shape="-0.89,2007.62 -0.65,2005.55 2.20,1999.80 6.95,1996.35 13.60,1995.20"/>
        <lane id=":A10_16_1" index="0" speed="10.36" length="19.50" shape="-0.89,2008.64 -0.65,2006.95 2.20,2002.20 6.95,1999.35 13.60,1998.40"/>
    </edge>
    <edge id=":A10_17" function="internal">
        <lane id=":A10_17_0" index="0" speed="3.65" length="3.23" shape="-0.80,2012.40 0.00,2012.00 0.80,2012.40 1.60,2013.60"/>
    </edge>
    <edge id=":A10_6" function="internal">
        <lane id=":A10_6_0" index="0" speed="6.51" length="9.03" shape="13.60,2008.00 11.15,2008.35 9.40,2009.40 8.35,2011.15 8.00,2013.60"/>
        <lane id=":A10_6_1" index="1" speed="8.00" length="14.19" shape="13.60,2004.80 9.75,2005.35 7.00,2007.00 5.35,2009.75 4.80,2013.60"/>
    </edge>
    <edge id=":A10_8" function="internal">
        <lane id=":A10_8_0" index="0" speed="10.88" length="27.14" shape="13.60,2001.60 5.55,2000.65 -0.20,1997.80 -3.65,1993.05 -4.80,1986.40"/>
        <lane id=":A10_8_1" index="1" speed="10.36" length="24.51" shape="13.60,2001.60 6.95,2000.65 2.20,1997.80 -0.65,1993.05 -1.60,1986.40"/>
    </edge>
    <edge id=":A10_10" function="internal">
        <lane id=":A10_10_0" index="0" speed="3.65" length="2.34" shape="13.60,2001.60 12.40,2000.80 12.00,2000.00"/>
    </edge>
    <edge id=":A10_18" function="internal">
        <lane id=":A10_18_0" index="0" speed="3.65" length="2.34" shape="12.00,2000.00 12.40,1999.20 13.60,1998.40"/>
    </edge>
    <edge id=":A10_11" function="internal">
        <lane id=":A10_11_0" index="0" speed="6.51" length="9.03" shape="8.00,1986.40 8.35,1988.85 9.40,1990.60 11.15,1991.65 13.60,1992.00"/>
    </edge>
    <edge id=":A10_12" function="internal">
        <lane id=":A10_12_0" index="0" speed="11.11" length="27.20" shape="8.00,1986.40 8.00,2013.60"/>
        <lane id=":A10_12_1" index="1" speed="11.11" length="27.20" shape="4.80,1986.40 4.80,2013.60"/>
        <lane id=":A10_12_2" index="2" speed="11.11" length="27.20" shape="1.60,1986.40 1.60,2013.60"/>
    </edge>
    <edge id=":A10_15" function="internal">
        <lane id=":A10_15_0" index="0" speed="3.65" length="1.44" shape="1.60,1986.40 0.80,1987.60"/>
    </edge>
    <edge id=":A10_19" function="internal">
        <lane id=":A10_19_0" index="0" speed="3.65" length="3.23" shape="0.80,1987.60 0.00,1988.00 -0.80,1987.60 -1.60,1986.40"/>
    </edge>
    <edge id=":A11_0" function="internal">
        <lane id=":A11_0_0" index="0" speed="11.11" length="27.20" shape="-8.00,2213.60 -8.00,2186.40"/>
        <lane id=":A11_0_1" index="1" speed="11.11" length="27.20" shape="-4.80,2213.60 -4.80,2186.40"/>
        <lane id=":A11_0_2" index="2" speed="11.11" length="27.20" shape="-1.60,2213.60 -1.60,2186.40"/>
    </edge>
    <edge id=":A11_3" function="internal">
        <lane id=":A11_3_0" index="0" speed="10.88" length="6.03" shape="-1.60,2213.60 -0.89,2207.62"/>
        <lane id=":A11_3_1" index="1" speed="10.36" length="5.01" shape="-1.60,2213.60 -0.89,2208.64"/>
    </edge>
    <edge id=":A11_5" function="internal">
        <lane id=":A11_5_0" index="0" speed="3.65" length="1.44" shape="-1.60,2213.60 -0.80,2212.40"/>
    </edge>
    <edge id=":A11_16" function="internal">
        <lane id=":A11_16_0" index="0" speed="10.88" length="21.12" shape="-0.89,2207.62 -0.65,2205.55 2.20,2199.80 6.95,2196.35 13.60,2195.20"/>
        <lane id=":A11_16_1" index="0" speed="10.36" length="19.50" shape="-0.89,2208.64 -0.65,2206.95 2.20,2202.20 6.95,2199.35 13.60,2198.40"/>
    </edge>
    <edge id=":A11_17" function="internal">
        <lane id=":A11_17_0" index="0" speed="3.65" length="3.23" shape="-0.80,2212.40 0.00,2212.00 0.80,2212.40 1.60,2213.60"/>
    </edge>
    <edge id=":A11_6" function="internal">
        <lane id=":A11_6_0" index="0" speed="6.51" length="9.03" shape="13.60,2208.00 11.15,2208.35 9.40,2209.40 8.35,2211.15 8.00,2213.60"/>
        <lane id=":A11_6_1" index="1" speed="8.00" length="14.19" shape="13.60,2204.80 9.75,2205.35 7.00,2207.00 5.35,2209.75 4.80,2213.60"/>
    </edge>
    <edge id=":A11_8" function="internal">
        <lane id=":A11_8_0" index="0" speed="10.88" length="27.14" shape="13.60,2201.60 5.55,2200.65 -0.20,2197.80 -3.65,2193.05 -4.80,2186.40"/>
        <lane id=":A11_8_1" index="1" speed="10.36" length="24.51" shape="13.60,2201.60 6.95,2200.65 2.20,2197.80 -0.65,2193.05 -1.60,2186.40"/>
    </edge>
    <edge id=":A11_10" function="internal">
        <lane id=":A11_10_0" index="0" speed="3.65" length="2.34" shape="13.60,2201.60 12.40,2200.80 12.00,2200.00"/>
    </edge>
    <edge id=":A11_18" function="internal">
        <lane id=":A11_18_0" index="0" speed="3.65" length="2.34" shape="12.00,2200.00 12.40,2199.20 13.60,2198.40"/>
    </edge>
    <edge id=":A11_11" function="internal">
        <lane id=":A11_11_0" index="0" speed="6.51" length="9.03" shape="8.00,2186.40 8.35,2188.85 9.40,2190.60 11.15,2191.65 13.60,2192.00"/>
    </edge>
    <edge id=":A11_12" function="internal">
        <lane id=":A11_12_0" index="0" speed="11.11" length="27.20" shape="8.00,2186.40 8.00,2213.60"/>
        <lane id=":A11_12_1" index="1" speed="11.11" length="27.20" shape="4.80,2186.40 4.80,2213.60"/>
        <lane id=":A11_12_2" index="2" speed="11.11" length="27.20" shape="1.60,2186.40 1.60,2213.60"/>
    </edge>
    <edge id=":A11_15" function="internal">
        <lane id=":A11_15_0" index="0" speed="3.65" length="1.44" shape="1.60,2186.40 0.80,2187.60"/>
    </edge>
    <edge id=":A11_19" function="internal">
        <lane id=":A11_19_0" index="0" speed="3.65" length="3.23" shape="0.80,2187.60 0.00,2188.00 -0.80,2187.60 -1.60,2186.40"/>
    </edge>
    <edge id=":A12_0" function="internal">
        <lane id=":A12_0_0" index="0" speed="11.11" length="27.20" shape="-8.00,2413.60 -8.00,2386.40"/>
        <lane id=":A12_0_1" index="1" speed="11.11" length="27.20" shape="-4.80,2413.60 -4.80,2386.40"/>
        <lane id=":A12_0_2" index="2" speed="11.11" length="27.20" shape="-1.60,2413.60 -1.60,2386.40"/>
    </edge>
    <edge id=":A12_3" function="internal">
        <lane id=":A12_3_0" index="0" speed="10.88" length="6.03" shape="-1.60,2413.60 -0.89,2407.62"/>
        <lane id=":A12_3_1" index="1" speed="10.36" length="5.01" shape="-1.60,2413.60 -0.89,2408.64"/>
    </edge>
    <edge id=":A12_5" function="internal">
        <lane id=":A12_5_0" index="0" speed="3.65" length="1.44" shape="-1.60,2413.60 -0.80,2412.40"/>
    </edge>
    <edge id=":A12_16" function="internal">
        <lane id=":A12_16_0" index="0" speed="10.88" length="21.12" shape="-0.89,2407.62 -0.65,2405.55 2.20,2399.80 6.95,2396.35 13.60,2395.20"/>
        <lane id=":A12_16_1" index="0" speed="10.36" length="19.50" shape="-0.89,2408.64 -0.65,2406.95 2.20,2402.20 6.95,2399.35 13.60,2398.40"/>
    </edge>
    <edge id=":A12_17" function="internal">
        <lane id=":A12_17_0" index="0" speed="3.65" length="3.23" shape="-0.80,2412.40 0.00,2412.00 0.80,2412.40 1.60,2413.60"/>
    </edge>
    <edge id=":A12_6" function="internal">
        <lane id=":A12_6_0" index="0" speed="6.51" length="9.03" shape="13.60,2408.00 11.15,2408.35 9.40,2409.40 8.35,2411.15 8.00,2413.60"/>
        <lane id=":A12_6_1" index="1" speed="8.00" length="14.19" shape="13.60,2404.80 9.75,2405.35 7.00,2407.00 5.35,2409.75 4.80,2413.60"/>
    </edge>
    <edge id=":A12_8" function="internal">
        <lane id=":A12_8_0" index="0" speed="10.88" length="27.14" shape="13.60,2401.60 5.55,2400.65 -0.20,2397.80 -3.65,2393.05 -4.80,2386.40"/>
        <lane id=":A12_8_1" index="1" speed="10.36" length="24.51" shape="13.60,2401.60 6.95,2400.65 2.20,2397.80 -0.65,2393.05 -1.60,2386.40"/>
    </edge>
    <edge id=":A12_10" function="internal">
        <lane id=":A12_10_0" index="0" speed="3.65" length="2.34" shape="13.60,2401.60 12.40,2400.80 12.00,2400.00"/>
    </edge>
    <edge id=":A12_18" function="internal">
        <lane id=":A12_18_0" index="0" speed="3.65" length="2.34" shape="12.00,2400.00 12.40,2399.20 13.60,2398.40"/>
    </edge>
    <edge id=":A12_11" function="internal">
        <lane id=":A12_11_0" index="0" speed="6.51" length="9.03" shape="8.00,2386.40 8.35,2388.85 9.40,2390.60 11.15,2391.65 13.60,2392.00"/>
    </edge>
    <edge id=":A12_12" function="internal">
        <lane id=":A12_12_0" index="0" speed="11.11" length="27.20" shape="8.00,2386.40 8.00,2413.60"/>
        <lane id=":A12_12_1" index="1" speed="11.11" length="27.20" shape="4.80,2386.40 4.80,2413.60"/>
        <lane id=":A12_12_2" index="2" speed="11.11" length="27.20" shape="1.60,2386.40 1.60,2413.60"/>
    </edge>
    <edge id=":A12_15" function="internal">
        <lane id=":A12_15_0" index="0" speed="3.65" length="1.44" shape="1.60,2386.40 0.80,2387.60"/>
    </edge>
    <edge id=":A12_19" function="internal">
        <lane id=":A12_19_0" index="0" speed="3.65" length="3.23" shape="0.80,2387.60 0.00,2388.00 -0.80,2387.60 -1.60,2386.40"/>
    </edge>
    <edge id=":A13_0" function="internal">
        <lane id=":A13_0_0" index="0" speed="11.11" length="27.20" shape="-8.00,2613.60 -8.00,2586.40"/>
        <lane id=":A13_0_1" index="1" speed="11.11" length="27.20" shape="-4.80,2613.60 -4.80,2586.40"/>
        <lane id=":A13_0_2" index="2" speed="11.11" length="27.20" shape="-1.60,2613.60 -1.60,2586.40"/>
    </edge>
    <edge id=":A13_3" function="internal">
        <lane id=":A13_3_0" index="0" speed="10.88" length="6.03" shape="-1.60,2613.60 -0.89,2607.62"/>
        <lane id=":A13_3_1" index="1" speed="10.36" length="5.01" shape="-1.60,2613.60 -0.89,2608.64"/>
    </edge>
    <edge id=":A13_5" function="internal">
        <lane id=":A13_5_0" index="0" speed="3.65" length="1.44" shape="-1.60,2613.60 -0.80,2612.40"/>
    </edge>
    <edge id=":A13_16" function="internal">
        <lane id=":A13_16_0" index="0" speed="10.88" length="21.12" shape="-0.89,2607.62 -0.65,2605.55 2.20,2599.80 6.95,2596.35 13.60,2595.20"/>
        <lane id=":A13_16_1" index="0" speed="10.36" length="19.50" shape="-0.89,2608.64 -0.65,2606.95 2.20,2602.20 6.95,2599.35 13.60,2598.40"/>
    </edge>
    <edge id=":A13_17" function="internal">
        <lane id=":A13_17_0" index="0" speed="3.65" length="3.23" shape="-0.80,2612.40 0.00,2612.00 0.80,2612.40 1.60,2613.60"/>
    </edge>
    <edge id=":A13_6" function="internal">
        <lane id=":A13_6_0" index="0" speed="6.51" length="9.03" shape="13.60,2608.00 11.15,2608.35 9.40,2609.40 8.35,2611.15 8.00,2613.60"/>
        <lane id=":A13_6_1" index="1" speed="8.00" length="14.19" shape="13.60,2604.80 9.75,2605.35 7.00,2607.00 5.35,2609.75 4.80,2613.60"/>
    </edge>
    <edge id=":A13_8" function="internal">
        <lane id=":A13_8_0" index="0" speed="10.88" length="27.14" shape="13.60,2601.60 5.55,2600.65 -0.20,2597.80 -3.65,2593.05 -4.80,2586.40"/>
        <lane id=":A13_8_1" index="1" speed="10.36" length="24.51" shape="13.60,2601.60 6.95,2600.65 2.20,2597.80 -0.65,2593.05 -1.60,2586.40"/>
    </edge>
    <edge id=":A13_10" function="internal">
        <lane id=":A13_10_0" index="0" speed="3.65" length="2.34" shape="13.60,2601.60 12.40,2600.80 12.00,2600.00"/>
    </edge>
    <edge id=":A13_18" function="internal">
        <lane id=":A13_18_0" index="0" speed="3.65" length="2.34" shape="12.00,2600.00 12.40,2599.20 13.60,2598.40"/>
    </edge>
    <edge id=":A13_11" function="internal">
        <lane id=":A13_11_0" index="0" speed="6.51" length="9.03" shape="8.00,2586.40 8.35,2588.85 9.40,2590.60 11.15,2591.65 13.60,2592.00"/>
    </edge>
    <edge id=":A13_12" function="internal">
        <lane id=":A13_12_0" index="0" speed="11.11" length="27.20" shape="8.00,2586.40 8.00,2613.60"/>
        <lane id=":A13_12_1" index="1" speed="11.11" length="27.20" shape="4.80,2586.40 4.80,2613.60"/>
        <lane id=":A13_12_2" index="2" speed="11.11" length="27.20" shape="1.60,2586.40 1.60,2613.60"/>
    </edge>
    <edge id=":A13_15" function="internal">
        <lane id=":A13_15_0" index="0" speed="3.65" length="1.44" shape="1.60,2586.40 0.80,2587.60"/>
    </edge>
    <edge id=":A13_19" function="internal">
        <lane id=":A13_19_0" index="0" speed="3.65" length="3.23" shape="0.80,2587.60 0.00,2588.00 -0.80,2587.60 -1.60,2586.40"/>
    </edge>
    <edge id=":A14_0" function="internal">
        <lane id=":A14_0_0" index="0" speed="11.11" length="28.38" shape="9.60,2808.00 1.90,2806.90 -3.60,2803.60 -6.90,2798.10 -8.00,2790.40"/>
        <lane id=":A14_0_1" index="1" speed="10.10" length="23.22" shape="9.60,2804.80 3.30,2803.90 -1.20,2801.20 -3.90,2796.70 -4.80,2790.40"/>
        <lane id=":A14_0_2" index="2" speed="8.96" length="18.06" shape="9.60,2801.60 4.70,2800.90 1.20,2798.80 -0.90,2795.30 -1.60,2790.40"/>
    </edge>
    <edge id=":A14_3" function="internal">
        <lane id=":A14_3_0" index="0" speed="3.90" length="2.58" shape="8.00,2790.40 8.10,2791.10 8.40,2791.60 8.90,2791.90 9.60,2792.00"/>
        <lane id=":A14_3_1" index="1" speed="6.08" length="7.74" shape="4.80,2790.40 5.10,2792.50 6.00,2794.00 7.50,2794.90 9.60,2795.20"/>
        <lane id=":A14_3_2" index="2" speed="7.66" length="12.90" shape="1.60,2790.40 2.10,2793.90 3.60,2796.40 6.10,2797.90 9.60,2798.40"/>
    </edge>
    <edge id=":A2_0" function="internal">
        <lane id=":A2_0_0" index="0" speed="11.11" length="27.20" shape="-8.00,413.60 -8.00,386.40"/>
        <lane id=":A2_0_1" index="1" speed="11.11" length="27.20" shape="-4.80,413.60 -4.80,386.40"/>
        <lane id=":A2_0_2" index="2" speed="11.11" length="27.20" shape="-1.60,413.60 -1.60,386.40"/>
    </edge>
    <edge id=":A2_3" function="internal">
        <lane id=":A2_3_0" index="0" speed="10.88" length="6.03" shape="-1.60,413.60 -0.89,407.62"/>
        <lane id=":A2_3_1" index="1" speed="10.36" length="5.01" shape="-1.60,413.60 -0.89,408.64"/>
    </edge>
    <edge id=":A2_5" function="internal">
        <lane id=":A2_5_0" index="0" speed="3.65" length="1.44" shape="-1.60,413.60 -0.80,412.40"/>
    </edge>
    <edge id=":A2_16" function="internal">
        <lane id=":A2_16_0" index="0" speed="10.88" length="21.12" shape="-0.89,407.62 -0.65,405.55 2.20,399.80 6.95,396.35 13.60,395.20"/>
        <lane id=":A2_16_1" index="0" speed="10.36" length="19.50" shape="-0.89,408.64 -0.65,406.95 2.20,402.20 6.95,399.35 13.60,398.40"/>
    </edge>
    <edge id=":A2_17" function="internal">
        <lane id=":A2_17_0" index="0" speed="3.65" length="3.23" shape="-0.80,412.40 0.00,412.00 0.80,412.40 1.60,413.60"/>
    </edge>
    <edge id=":A2_6" function="internal">
        <lane id=":A2_6_0" index="0" speed="6.51" length="9.03" shape="13.60,408.00 11.15,408.35 9.40,409.40 8.35,411.15 8.00,413.60"/>
        <lane id=":A2_6_1" index="1" speed="8.00" length="14.19" shape="13.60,404.80 9.75,405.35 7.00,407.00 5.35,409.75 4.80,413.60"/>
    </edge>
    <edge id=":A2_8" function="internal">
        <lane id=":A2_8_0" index="0" speed="10.88" length="27.14" shape="13.60,401.60 5.55,400.65 -0.20,397.80 -3.65,393.05 -4.80,386.40"/>
        <lane id=":A2_8_1" index="1" speed="10.36" length="24.51" shape="13.60,401.60 6.95,400.65 2.20,397.80 -0.65,393.05 -1.60,386.40"/>
    </edge>
    <edge id=":A2_10" function="internal">
        <lane id=":A2_10_0" index="0" speed="3.65" length="2.34" shape="13.60,401.60 12.40,400.80 12.00,400.00"/>
    </edge>
    <edge id=":A2_18" function="internal">
        <lane id=":A2_18_0" index="0" speed="3.65" length="2.34" shape="12.00,400.00 12.40,399.20 13.60,398.40"/>
    </edge>
    <edge id=":A2_11" function="internal">
        <lane id=":A2_11_0" index="0" speed="6.51" length="9.03" shape="8.00,386.40 8.35,388.85 9.40,390.60 11.15,391.65 13.60,392.00"/>
    </edge>
    <edge id=":A2_12" function="internal">
        <lane id=":A2_12_0" index="0" speed="11.11" length="27.20" shape="8.00,386.40 8.00,413.60"/>
        <lane id=":A2_12_1" index="1" speed="11.11" length="27.20" shape="4.80,386.40 4.80,413.60"/>
        <lane id=":A2_12_2" index="2" speed="11.11" length="27.20" shape="1.60,386.40 1.60,413.60"/>
    </edge>
    <edge id=":A2_15" function="internal">
        <lane id=":A2_15_0" index="0" speed="3.65" length="1.44" shape="1.60,386.40 0.80,387.60"/>
    </edge>
    <edge id=":A2_19" function="internal">
        <lane id=":A2_19_0" index="0" speed="3.65" length="3.23" shape="0.80,387.60 0.00,388.00 -0.80,387.60 -1.60,386.40"/>
    </edge>
    <edge id=":A3_0" function="internal">
        <lane id=":A3_0_0" index="0" speed="11.11" length="27.20" shape="-8.00,613.60 -8.00,586.40"/>
        <lane id=":A3_0_1" index="1" speed="11.11" length="27.20" shape="-4.80,613.60 -4.80,586.40"/>
        <lane id=":A3_0_2" index="2" speed="11.11" length="27.20" shape="-1.60,613.60 -1.60,586.40"/>
    </edge>
    <edge id=":A3_3" function="internal">
        <lane id=":A3_3_0" index="0" speed="10.88" length="6.03" shape="-1.60,613.60 -0.89,607.62"/>
        <lane id=":A3_3_1" index="1" speed="10.36" length="5.01" shape="-1.60,613.60 -0.89,608.64"/>
    </edge>
    <edge id=":A3_5" function="internal">
        <lane id=":A3_5_0" index="0" speed="3.65" length="1.44" shape="-1.60,613.60 -0.80,612.40"/>
    </edge>
    <edge id=":A3_16" function="internal">
        <lane id=":A3_16_0" index="0" speed="10.88" length="21.12" shape="-0.89,607.62 -0.65,605.55 2.20,599.80 6.95,596.35 13.60,595.20"/>
        <lane id=":A3_16_1" index="0" speed="10.36" length="19.50" shape="-0.89,608.64 -0.65,606.95 2.20,602.20 6.95,599.35 13.60,598.40"/>
    </edge>
    <edge id=":A3_17" function="internal">
        <lane id=":A3_17_0" index="0" speed="3.65" length="3.23" shape="-0.80,612.40 0.00,612.00 0.80,612.40 1.60,613.60"/>
    </edge>
    <edge id=":A3_6" function="internal">
        <lane id=":A3_6_0" index="0" speed="6.51" length="9.03" shape="13.60,608.00 11.15,608.35 9.40,609.40 8.35,611.15 8.00,613.60"/>
        <lane id=":A3_6_1" index="1" speed="8.00" length="14.19" shape="13.60,604.80 9.75,605.35 7.00,607.00 5.35,609.75 4.80,613.60"/>
    </edge>
    <edge id=":A3_8" function="internal">
        <lane id=":A3_8_0" index="0" speed="10.88" length="27.14" shape="13.60,601.60 5.55,600.65 -0.20,597.80 -3.65,593.05 -4.80,586.40"/>
        <lane id=":A3_8_1" index="1" speed="10.36" length="24.51" shape="13.60,601.60 6.95,600.65 2.20,597.80 -0.65,593.05 -1.60,586.40"/>
    </edge>
    <edge id=":A3_10" function="internal">
        <lane id=":A3_10_0" index="0" speed="3.65" length="2.34" shape="13.60,601.60 12.40,600.80 12.00,600.00"/>
    </edge>
    <edge id=":A3_18" function="internal">
        <lane id=":A3_18_0" index="0" speed="3.65" length="2.34" shape="12.00,600.00 12.40,599.20 13.60,598.40"/>
    </edge>
    <edge id=":A3_11" function="internal">
        <lane id=":A3_11_0" index="0" speed="6.51" length="9.03" shape="8.00,586.40 8.35,588.85 9.40,590.60 11.15,591.65 13.60,592.00"/>
    </edge>
    <edge id=":A3_12" function="internal">
        <lane id=":A3_12_0" index="0" speed="11.11" length="27.20" shape="8.00,586.40 8.00,613.60"/>
        <lane id=":A3_12_1" index="1" speed="11.11" length="27.20" shape="4.80,586.40 4.80,613.60"/>
        <lane id=":A3_12_2" index="2" speed="11.11" length="27.20" shape="1.60,586.40 1.60,613.60"/>
    </edge>
    <edge id=":A3_15" function="internal">
        <lane id=":A3_15_0" index="0" speed="3.65" length="1.44" shape="1.60,586.40 0.80,587.60"/>
    </edge>
    <edge id=":A3_19" function="internal">
        <lane id=":A3_19_0" index="0" speed="3.65" length="3.23" shape="0.80,587.60 0.00,588.00 -0.80,587.60 -1.60,586.40"/>
    </edge>
    <edge id=":A4_0" function="internal">
        <lane id=":A4_0_0" index="0" speed="11.11" length="27.20" shape="-8.00,813.60 -8.00,786.40"/>
        <lane id=":A4_0_1" index="1" speed="11.11" length="27.20" shape="-4.80,813.60 -4.80,786.40"/>
        <lane id=":A4_0_2" index="2" speed="11.11" length="27.20" shape="-1.60,813.60 -1.60,786.40"/>
    </edge>
    <edge id=":A4_3" function="internal">
        <lane id=":A4_3_0" index="0" speed="10.88" length="6.03" shape="-1.60,813.60 -0.89,807.62"/>
        <lane id=":A4_3_1" index="1" speed="10.36" length="5.01" shape="-1.60,813.60 -0.89,808.64"/>
    </edge>
    <edge id=":A4_5" function="internal">
        <lane id=":A4_5_0" index="0" speed="3.65" length="1.44" shape="-1.60,813.60 -0.80,812.40"/>
    </edge>
    <edge id=":A4_16" function="internal">
        <lane id=":A4_16_0" index="0" speed="10.88" length="21.12" shape="-0.89,807.62 -0.65,805.55 2.20,799.80 6.95,796.35 13.60,795.20"/>
        <lane id=":A4_16_1" index="0" speed="10.36" length="19.50" shape="-0.89,808.64 -0.65,806.95 2.20,802.20 6.95,799.35 13.60,798.40"/>
    </edge>
    <edge id=":A4_17" function="internal">
        <lane id=":A4_17_0" index="0" speed="3.65" length="3.23" shape="-0.80,812.40 0.00,812.00 0.80,812.40 1.60,813.60"/>
    </edge>
    <edge id=":A4_6" function="internal">
        <lane id=":A4_6_0" index="0" speed="6.51" length="9.03" shape="13.60,808.00 11.15,808.35 9.40,809.40 8.35,811.15 8.00,813.60"/>
        <lane id=":A4_6_1" index="1" speed="8.00" length="14.19" shape="13.60,804.80 9.75,805.35 7.00,807.00 5.35,809.75 4.80,813.60"/>
    </edge>
    <edge id=":A4_8" function="internal">
        <lane id=":A4_8_0" index="0" speed="10.88" length="27.14" shape="13.60,801.60 5.55,800.65 -0.20,797.80 -3.65,793.05 -4.80,786.40"/>
        <lane id=":A4_8_1" index="1" speed="10.36" length="24.51" shape="13.60,801.60 6.95,800.65 2.20,797.80 -0.65,793.05 -1.60,786.40"/>
    </edge>
    <edge id=":A4_10" function="internal">
        <lane id=":A4_10_0" index="0" speed="3.65" length="2.34" shape="13.60,801.60 12.40,800.80 12.00,800.00"/>
    </edge>
    <edge id=":A4_18" function="internal">
        <lane id=":A4_18_0" index="0" speed="3.65" length="2.34" shape="12.00,800.00 12.40,799.20 13.60,798.40"/>
    </edge>
    <edge id=":A4_11" function="internal">
        <lane id=":A4_11_0" index="0" speed="6.51" length="9.03" shape="8.00,786.40 8.35,788.85 9.40,790.60 11.15,791.65 13.60,792.00"/>
    </edge>
    <edge id=":A4_12" function="internal">
        <lane id=":A4_12_0" index="0" speed="11.11" length="27.20" shape="8.00,786.40 8.00,813.60"/>
        <lane id=":A4_12_1" index="1" speed="11.11" length="27.20" shape="4.80,786.40 4.80,813.60"/>
        <lane id=":A4_12_2" index="2" speed="11.11" length="27.20" shape="1.60,786.40 1.60,813.60"/>
    </edge>
    <edge id=":A4_15" function="internal">
        <lane id=":A4_15_0" index="0" speed="3.65" length="1.44" shape="1.60,786.40 0.80,787.60"/>
    </edge>
    <edge id=":A4_19" function="internal">
        <lane id=":A4_19_0" index="0" speed="3.65" length="3.23" shape="0.80,787.60 0.00,788.00 -0.80,787.60 -1.60,786.40"/>
    </edge>
    <edge id=":A5_0" function="internal">
        <lane id=":A5_0_0" index="0" speed="11.11" length="27.20" shape="-8.00,1013.60 -8.00,986.40"/>
        <lane id=":A5_0_1" index="1" speed="11.11" length="27.20" shape="-4.80,1013.60 -4.80,986.40"/>
        <lane id=":A5_0_2" index="2" speed="11.11" length="27.20" shape="-1.60,1013.60 -1.60,986.40"/>
    </edge>
    <edge id=":A5_3" function="internal">
        <lane id=":A5_3_0" index="0" speed="10.88" length="6.03" shape="-1.60,1013.60 -0.89,1007.62"/>
        <lane id=":A5_3_1" index="1" speed="10.36" length="5.01" shape="-1.60,1013.60 -0.89,1008.64"/>
    </edge>
    <edge id=":A5_5" function="internal">
        <lane id=":A5_5_0" index="0" speed="3.65" length="1.44" shape="-1.60,1013.60 -0.80,1012.40"/>
    </edge>
    <edge id=":A5_16" function="internal">
        <lane id=":A5_16_0" index="0" speed="10.88" length="21.12" shape="-0.89,1007.62 -0.65,1005.55 2.20,999.80 6.95,996.35 13.60,995.20"/>
        <lane id=":A5_16_1" index="0" speed="10.36" length="19.50" shape="-0.89,1008.64 -0.65,1006.95 2.20,1002.20 6.95,999.35 13.60,998.40"/>
    </edge>
    <edge id=":A5_17" function="internal">
        <lane id=":A5_17_0" index="0" speed="3.65" length="3.23" shape="-0.80,1012.40 0.00,1012.00 0.80,1012.40 1.60,1013.60"/>