<trips>
    <vType id="car" accel="2.6" decel="4.5" sigma="0.5" length="5" minGap="2.5" maxSpeed="13.89" color="0,255,0"/>
    <trip id="veh_1808" type="car" depart="0.0" from="N0O0" to="J3J4"/>
    <trip id="veh_144" type="car" depart="2.9" from="A8A7" to="H9I9"/>
    <trip id="veh_1639" type="car" depart="3.3" from="O13N13" to="H9G9"/>
    <trip id="veh_1976" type="car" depart="3.5" from="J14J13" to="I7I8"/>
    <trip id="veh_1425" type="car" depart="3.6" from="A13B13" to="J10K10"/>
    <trip id="veh_2267" type="car" depart="4.5" from="A4A5" to="K9J9"/>
    <trip id="veh_1559" type="car" depart="4.9" from="F14F13" to="K9K8"/>
    <trip id="veh_69" type="car" depart="5.6" from="D14E14" to="L7K7"/>
    <trip id="veh_1381" type="car" depart="5.7" from="O13O14" to="K6J6"/>
    <trip id="veh_7" type="car" depart="7.9" from="M14L14" to="F4G4"/>
    <trip id="veh_2265" type="car" depart="12.0" from="O3N3" to="E7E6"/>
    <trip id="veh_1304" type="car" depart="16.2" from="A3A4" to="K5J5"/>
    <trip id="veh_2496" type="car" depart="16.8" from="A12A11" to="G8H8"/>
    <trip id="veh_158" type="car" depart="17.9" from="E0F0" to="I11I10"/>
    <trip id="veh_893" type="car" depart="18.0" from="O5O6" to="I10H10"/>
    <trip id="veh_1661" type="car" depart="20.7" from="O9O10" to="H7G7"/>
    <trip id="veh_1516" type="car" depart="21.0" from="O3N3" to="D4E4"/>
    <trip id="veh_2058" type="car" depart="21.2" from="J0K0" to="G10F10"/>
    <trip id="veh_351" type="car" depart="21.4" from="L14M14" to="H4H5"/>
    <trip id="veh_2241" type="car" depart="21.4" from="O8O9" to="H8G8"/>
    <trip id="veh_53" type="car" depart="21.5" from="J14I14" to="I6H6"/>
    <trip id="veh_919" type="car" depart="21.9" from="N0M0" to="J5K5"/>
    <trip id="veh_699" type="car" depart="22.8" from="O9O10" to="F4E4"/>
    <trip id="veh_2180" type="car" depart="22.8" from="G0H0" to="J5J6"/>
    <trip id="veh_2343" type="car" depart="23.9" from="D0C0" to="E5E6"/>
    <trip id="veh_995" type="car" depart="24.1" from="A11A12" to="J9I9"/>
    <trip id="veh_1549" type="car" depart="25.3" from="B0B1" to="E7F7"/>
    <trip id="veh_1211" type="car" depart="26.4" from="M0M1" to="I6H6"/>
    <trip id="veh_568" type="car" depart="27.3" from="A2A3" to="F5F6"/>
    <trip id="veh_1584" type="car" depart="27.3" from="A2A3" to="H5I5"/>
    <trip id="veh_1515" type="car" depart="29.9" from="M14L14" to="F5F6"/>
    <trip id="veh_2013" type="car" depart="30.7" from="A4A3" to="F4G4"/>
    <trip id="veh_1454" type="car" depart="31.6" from="J0J1" to="G5G6"/>
    <trip id="veh_1193" type="car" depart="32.1" from="D0C0" to="K3K4"/>
    <trip id="veh_2130" type="car" depart="36.4" from="I0H0" to="J3J4"/>
    <trip id="veh_789" type="car" depart="37.5" from="A7B7" to="G7G8"/>
    <trip id="veh_1844" type="car" depart="38.6" from="A13A12" to="G9G8"/>
    <trip id="veh_1980" type="car" depart="39.0" from="A10A9" to="J9J8"/>
    <trip id="veh_1755" type="car" depart="41.4" from="A6B6" to="J4K4"/>
    <trip id="veh_1950" type="car" depart="42.4" from="E14F14" to="E8F8"/>
    <trip id="veh_517" type="car" depart="42.8" from="O5O4" to="F8G8"/>
    <trip id="veh_973" type="car" depart="42.8" from="O5O6" to="H7I7"/>
    <trip id="veh_588" type="car" depart="43.5" from="N0O0" to="K3K4"/>
    <trip id="veh_679" type="car" depart="43.8" from="O4N4" to="J6J5"/>
    <trip id="veh_1623" type="car" depart="43.8" from="O3N3" to="E6F6"/>
    <trip id="veh_1018" type="car" depart="45.8" from="A10B10" to="L10K10"/>
    <trip id="veh_700" type="car" depart="47.5" from="B14B13" to="F9F8"/>
    <trip id="veh_1123" type="car" depart="48.5" from="O14N14" to="I9I8"/>
    <trip id="veh_1083" type="car" depart="49.1" from="A5A6" to="H8G8"/>
    <trip id="veh_960" type="car" depart="51.8" from="D14C14" to="I5H5"/>
    <trip id="veh_100" type="car" depart="52.4" from="D0C0" to="F8F9"/>
    <trip id="veh_1490" type="car" depart="56.5" from="O2O3" to="G6H6"/>
    <trip id="veh_1269" type="car" depart="59.8" from="E14F14" to="G10H10"/>
    <trip id="veh_2495" type="car" depart="61.8" from="C0B0" to="H8I8"/>
    <trip id="veh_2369" type="car" depart="62.1" from="O0N0" to="J10K10"/>
    <trip id="veh_1697" type="car" depart="64.1" from="O7O6" to="J9K9"/>
    <trip id="veh_273" type="car" depart="65.2" from="J14I14" to="I7I6"/>
    <trip id="veh_1010" type="car" depart="65.3" from="A2A1" to="F7G7"/>
    <trip id="veh_2176" type="car" depart="72.3" from="B14A14" to="E5F5"/>
    <trip id="veh_1519" type="car" depart="75.3" from="L0L1" to="J9K9"/>
    <trip id="veh_1062" type="car" depart="78.6" from="B14A14" to="D5E5"/>
    <trip id="veh_276" type="car" depart="80.1" from="A10B10" to="K7K6"/>
    <trip id="veh_1165" type="car" depart="81.2" from="J14I14" to="I5I4"/>
    <trip id="veh_1233" type="car" depart="83.6" from="O14N14" to="F8F9"/>
    <trip id="veh_349" type="car" depart="84.7" from="A1A0" to="H5H4"/>
    <trip id="veh_1734" type="car" depart="84.7" from="O11N11" to="K5K4"/>
    <trip id="veh_426" type="car" depart="85.6" from="A7B7" to="J3J4"/>
    <trip id="veh_1903" type="car" depart="86.2" from="L14K14" to="G9G8"/>
    <trip id="veh_2053" type="car" depart="87.0" from="A10A9" to="F9F8"/>
    <trip id="veh_1111" type="car" depart="87.6" from="N14N13" to="E7F7"/>
    <trip id="veh_1960" type="car" depart="90.9" from="E0D0" to="H6G6"/>
    <trip id="veh_625" type="car" depart="93.8" from="O7O8" to="K8K9"/>
    <trip id="veh_1085" type="car" depart="93.9" from="I0I1" to="F9F8"/>
    <trip id="veh_1136" type="car" depart="94.2" from="N14M14" to="I5I6"/>
    <trip id="veh_1479" type="car" depart="96.1" from="A0B0" to="J8I8"/>
    <trip id="veh_1624" type="car" depart="96.8" from="N0N1" to="H3H4"/>
    <trip id="veh_1949" type="car" depart="98.1" from="I14J14" to="G6G5"/>
    <trip id="veh_1154" type="car" depart="98.4" from="L0L1" to="J9J10"/>
    <trip id="veh_139" type="car" depart="98.9" from="A0A1" to="F3F4"/>
    <trip id="veh_390" type="car" depart="100.5" from="A9B9" to="D4E4"/>
    <trip id="veh_1289" type="car" depart="105.6" from="O8N8" to="J5K5"/>
    <trip id="veh_365" type="car" depart="106.4" from="A7A6" to="K3K4"/>
    <trip id="veh_1050" type="car" depart="110.0" from="O9N9" to="K7K8"/>
    <trip id="veh_1156" type="car" depart="110.8" from="A8A9" to="J7I7"/>
    <trip id="veh_288" type="car" depart="111.3" from="I14J14" to="I7I8"/>
    <trip id="veh_1616" type="car" depart="111.4" from="O7O6" to="H9I9"/>
    <trip id="veh_2209" type="car" depart="111.5" from="A4A5" to="F4F5"/>
    <trip id="veh_1029" type="car" depart="112.9" from="A10B10" to="L9K9"/>
    <trip id="veh_1222" type="car" depart="113.2" from="A7A6" to="F6F7"/>
    <trip id="veh_2270" type="car" depart="113.3" from="A3B3" to="E5F5"/>
    <trip id="veh_1748" type="car" depart="113.8" from="C14B14" to="J9J10"/>
    <trip id="veh_1525" type="car" depart="114.5" from="E14D14" to="H6H5"/>
    <trip id="veh_620" type="car" depart="116.2" from="O1O0" to="L5K5"/>
    <trip id="veh_307" type="car" depart="116.7" from="B0C0" to="G8F8"/>
    <trip id="veh_1190" type="car" depart="116.7" from="H0H1" to="H9I9"/>
    <trip id="veh_2459" type="car" depart="118.5" from="A4A3" to="K8K9"/>
    <trip id="veh_2287" type="car" depart="119.7" from="O9O8" to="E5F5"/>
    <trip id="veh_920" type="car" depart="119.9" from="F0F1" to="G9F9"/>
    <trip id="veh_1912" type="car" depart="120.1" from="A14B14" to="F10F9"/>
    <trip id="veh_1250" type="car" depart="120.5" from="A8B8" to="J9I9"/>
    <trip id="veh_714" type="car" depart="122.0" from="E14E13" to="H6G6"/>
    <trip id="veh_1411" type="car" depart="125.3" from="L0M0" to="G7H7"/>
    <trip id="veh_2117" type="car" depart="125.8" from="C14B14" to="I6J6"/>
    <trip id="veh_1868" type="car" depart="126.6" from="A9A10" to="J9J10"/>
    <trip id="veh_2447" type="car" depart="126.6" from="I14I13" to="D9E9"/>
    <trip id="veh_1922" type="car" depart="133.1" from="A2B2" to="I4I5"/>
    <trip id="veh_709" type="car" depart="134.4" from="B0C0" to="G5F5"/>
    <trip id="veh_75" type="car" depart="140.9" from="K14J14" to="L4K4"/>
    <trip id="veh_844" type="car" depart="142.0" from="O7O6" to="G8F8"/>
    <trip id="veh_1825" type="car" depart="143.5" from="O5N5" to="H9H8"/>
    <trip id="veh_2251" type="car" depart="143.7" from="O2N2" to="F11F10"/>
    <trip id="veh_1187" type="car" depart="149.1" from="A7B7" to="F8G8"/>
    <trip id="veh_591" type="car" depart="150.0" from="J14I14" to="J3J4"/>
    <trip id="veh_597" type="car" depart="150.5" from="G14G13" to="F4F5"/>
    <trip id="veh_1387" type="car" depart="151.8" from="N14O14" to="I6J6"/>
    <trip id="veh_1448" type="car" depart="152.0" from="O3O4" to="J11J10"/>
    <trip id="veh_746" type="car" depart="152.1" from="A3A4" to="E4E5"/>
    <trip id="veh_2469" type="car" depart="152.1" from="A3A4" to="I7I6"/>
    <trip id="veh_52" type="car" depart="153.7" from="N0O0" to="H7H6"/>
    <trip id="veh_1410" type="car" depart="154.0" from="J0I0" to="J5J6"/>
    <trip id="veh_915" type="car" depart="156.4" from="F0F1" to="H6H5"/>
    <trip id="veh_2319" type="car" depart="158.1" from="O8O9" to="I9J9"/>
    <trip id="veh_2396" type="car" depart="158.2" from="A7A8" to="K4K5"/>
    <trip id="veh_1409" type="car" depart="159.8" from="O3O4" to="F8F7"/>
    <trip id="veh_183" type="car" depart="160.5" from="A7A8" to="F3F4"/>
    <trip id="veh_482" type="car" depart="160.7" from="M0M1" to="E7F7"/>
    <trip id="veh_757" type="car" depart="162.7" from="G0H0" to="D5E5"/>
    <trip id="veh_1288" type="car" depart="164.3" from="H14G14" to="J6J7"/>
    <trip id="veh_418" type="car" depart="164.4" from="A13A14" to="D8E8"/>
    <trip id="veh_2346" type="car" depart="164.6" from="A13B13" to="F5F6"/>
    <trip id="veh_776" type="car" depart="170.6" from="A6A7" to="I9I10"/>
    <trip id="veh_1251" type="car" depart="170.6" from="O10O11" to="G5H5"/>
    <trip id="veh_1388" type="car" depart="174.9" from="A13A14" to="I9I8"/>
    <trip id="veh_2307" type="car" depart="175.0" from="J0K0" to="G5F5"/>
    <trip id="veh_1248" type="car" depart="176.3" from="G0G1" to="E10F10"/>
    <trip id="veh_2316" type="car" depart="176.6" from="I14I13" to="I10J10"/>
    <trip id="veh_1983" type="car" depart="177.3" from="I14H14" to="G4G5"/>
    <trip id="veh_522" type="car" depart="177.7" from="A3A2" to="J6J5"/>
    <trip id="veh_1998" type="car" depart="179.7" from="A2A3" to="G8G9"/>
    <trip id="veh_1615" type="car" depart="180.4" from="A7A6" to="I9J9"/>
    <trip id="veh_17" type="car" depart="181.5" from="K14L14" to="I9J9"/>
    <trip id="veh_694" type="car" depart="181.5" from="K0J0" to="K8K7"/>
    <trip id="veh_1863" type="car" depart="181.5" from="E0D0" to="J7K7"/>
    <trip id="veh_1657" type="car" depart="182.5" from="F0E0" to="G6F6"/>
    <trip id="veh_1509" type="car" depart="184.8" from="H0H1" to="E10F10"/>
    <trip id="veh_2249" type="car" depart="187.1" from="O2O3" to="E9F9"/>
    <trip id="veh_1750" type="car" depart="189.0" from="B14B13" to="F9F10"/>
    <trip id="veh_2091" type="car" depart="189.6" from="F0E0" to="D10E10"/>
    <trip id="veh_1316" type="car" depart="192.1" from="N14M14" to="G4H4"/>
    <trip id="veh_2143" type="car" depart="193.0" from="J14I14" to="J10J9"/>
    <trip id="veh_2059" type="car" depart="197.4" from="G14H14" to="F5F4"/>
    <trip id="veh_2124" type="car" depart="197.6" from="K14L14" to="H8H7"/>
    <trip id="veh_536" type="car" depart="198.1" from="L0L1" to="I7I6"/>
    <trip id="veh_111" type="car" depart="198.2" from="N14M14" to="G9G10"/>
    <trip id="veh_2044" type="car" depart="199.9" from="A6B6" to="G10G9"/>
    <trip id="veh_251" type="car" depart="201.2" from="I0I1" to="J7J8"/>
    <trip id="veh_1342" type="car" depart="202.1" from="J14I14" to="J5I5"/>
    <trip id="veh_2314" type="car" depart="204.9" from="A5A6" to="J5K5"/>
    <trip id="veh_375" type="car" depart="209.9" from="A2A1" to="J7J8"/>
    <trip id="veh_2086" type="car" depart="210.5" from="B14C14" to="J10K10"/>
    <trip id="veh_950" type="car" depart="211.0" from="O13O12" to="I5H5"/>
    <trip id="veh_1830" type="car" depart="211.7" from="O10N10" to="K7J7"/>
    <trip id="veh_470" type="car" depart="211.8" from="A7A6" to="J5I5"/>
    <trip id="veh_1327" type="car" depart="211.9" from="A0A1" to="G7H7"/>
    <trip id="veh_463" type="car" depart="212.1" from="O5O6" to="K11K10"/>
    <trip id="veh_1103" type="car" depart="214.1" from="A5A4" to="I4I5"/>
    <trip id="veh_807" type="car" depart="214.4" from="O4N4" to="L10K10"/>
    <trip id="veh_61" type="car" depart="214.9" from="O6O7" to="H7H6"/>
    <trip id="veh_2121" type="car" depart="215.7" from="K14L14" to="G8F8"/>
    <trip id="veh_1700" type="car" depart="216.6" from="O9O8" to="H5H4"/>
    <trip id="veh_899" type="car" depart="218.4" from="O6N6" to="K5K6"/>
    <trip id="veh_1002" type="car" depart="219.0" from="O13N13" to="K3K4"/>
    <trip id="veh_2151" type="car" depart="220.5" from="J0J1" to="K8K7"/>
    <trip id="veh_993" type="car" depart="221.3" from="E0E1" to="E9E8"/>
    <trip id="veh_1751" type="car" depart="224.7" from="A9A10" to="F5G5"/>
    <trip id="veh_204" type="car" depart="225.6" from="L14K14" to="F9F8"/>
    <trip id="veh_1906" type="car" depart="230.5" from="A9A10" to="G5G6"/>
    <trip id="veh_1510" type="car" depart="232.1" from="M14M13" to="J5I5"/>
    <trip id="veh_1202" type="car" depart="232.2" from="A11A12" to="D5E5"/>
    <trip id="veh_93" type="car" depart="233.5" from="I0I1" to="G6F6"/>
    <trip id="veh_249" type="car" depart="234.4" from="K14J14" to="K9J9"/>
    <trip id="veh_1219" type="car" depart="235.6" from="H14H13" to="K5K6"/>
    <trip id="veh_2072" type="car" depart="237.6" from="E0F0" to="H7I7"/>
    <trip id="veh_521" type="car" depart="238.2" from="F14E14" to="F6G6"/>
    <trip id="veh_2414" type="car" depart="240.5" from="O12O13" to="L6K6"/>
    <trip id="veh_1551" type="car" depart="241.8" from="F0G0" to="H7G7"/>
    <trip id="veh_1423" type="car" depart="243.0" from="B14C14" to="G7F7"/>
    <trip id="veh_1926" type="car" depart="244.5" from="I14I13" to="J4K4"/>
    <trip id="veh_2047" type="car" depart="244.7" from="C0C1" to="G7H7"/>
    <trip id="veh_2025" type="car" depart="245.2" from="E0F0" to="H5H4"/>
    <trip id="veh_2303" type="car" depart="246.4" from="J0J1" to="J10J9"/>
    <trip id="veh_108" type="car" depart="247.5" from="O11N11" to="I3I4"/>
    <trip id="veh_1196" type="car" depart="249.0" from="O3O4" to="D6E6"/>
    <trip id="veh_1858" type="car" depart="250.5" from="C14D14" to="H9H8"/>
    <trip id="veh_758" type="car" depart="251.8" from="D14D13" to="I9J9"/>
    <trip id="veh_1518" type="car" depart="252.8" from="A6A5" to="K8J8"/>
    <trip id="veh_119" type="car" depart="252.9" from="O9N9" to="G6G5"/>
    <trip id="veh_802" type="car" depart="253.1" from="M0M1" to="J9K9"/>
    <trip id="veh_2410" type="car" depart="255.2" from="C0D0" to="E10E9"/>
    <trip id="veh_1119" type="car" depart="257.3" from="A12A13" to="I8I9"/>
    <trip id="veh_1129" type="car" depart="258.0" from="A4B4" to="G3G4"/>
    <trip id="veh_741" type="car" depart="260.1" from="A2B2" to="I9J9"/>
    <trip id="veh_2424" type="car" depart="261.3" from="O2O1" to="G5F5"/>
    <trip id="veh_1195" type="car" depart="261.8" from="B0B1" to="G10H10"/>
    <trip id="veh_1963" type="car" depart="268.3" from="M14M13" to="I9H9"/>
    <trip id="veh_1945" type="car" depart="269.9" from="O6N6" to="F5E5"/>
    <trip id="veh_1864" type="car" depart="270.4" from="A8A7" to="I8H8"/>
    <trip id="veh_201" type="car" depart="270.7" from="O10O9" to="I7I8"/>
    <trip id="veh_1592" type="car" depart="271.1" from="O10O11" to="J10K10"/>
    <trip id="veh_1742" type="car" depart="272.7" from="E14D14" to="G10G9"/>
    <trip id="veh_392" type="car" depart="274.0" from="K0K1" to="J7J6"/>
    <trip id="veh_583" type="car" depart="277.7" from="A12A11" to="I8J8"/>
    <trip id="veh_1287" type="car" depart="277.8" from="H0G0" to="G4G5"/>
    <trip id="veh_1011" type="car" depart="278.2" from="O1O2" to="G9G10"/>
    <trip id="veh_2445" type="car" depart="278.2" from="J14K14" to="G10F10"/>
    <trip id="veh_1933" type="car" depart="278.8" from="L14L13" to="H8G8"/>
    <trip id="veh_1436" type="car" depart="278.9" from="A13A14" to="F8G8"/>
    <trip id="veh_1386" type="car" depart="280.2" from="O2N2" to="J8K8"/>
    <trip id="veh_767" type="car" depart="280.3" from="G14H14" to="K8K7"/>
    <trip id="veh_1281" type="car" depart="280.6" from="J14J13" to="F8G8"/>
    <trip id="veh_2173" type="car" depart="281.2" from="H14H13" to="E10F10"/>
    <trip id="veh_283" type="car" depart="282.4" from="M14N14" to="H6H7"/>
    <trip id="veh_2269" type="car" depart="285.9" from="N14N13" to="H11H10"/>
    <trip id="veh_1495" type="car" depart="288.2" from="O5O4" to="H10G10"/>
    <trip id="veh_500" type="car" depart="292.2" from="F14F13" to="E5E4"/>
    <trip id="veh_1708" type="car" depart="297.9" from="F0F1" to="G9F9"/>
    <trip id="veh_530" type="car" depart="298.1" from="A11A10" to="E8F8"/>
    <trip id="veh_2084" type="car" depart="302.5" from="K14K13" to="F6G6"/>
    <trip id="veh_604" type="car" depart="302.6" from="O13N13" to="K6K7"/>
    <trip id="veh_983" type="car" depart="303.1" from="A9A8" to="F7G7"/>
    <trip id="veh_2397" type="car" depart="303.4" from="J14I14" to="K6K5"/>
    <trip id="veh_1743" type="car" depart="307.3" from="O8O9" to="J5K5"/>
    <trip id="veh_411" type="car" depart="308.8" from="M0N0" to="I4H4"/>
    <trip id="veh_994" type="car" depart="309.8" from="A6A5" to="K8K9"/>
    <trip id="veh_1600" type="car" depart="312.0" from="C0B0" to="J5J4"/>
    <trip id="veh_1576" type="car" depart="314.7" from="A6A7" to="G9H9"/>
    <trip id="veh_1020" type="car" depart="315.0" from="A12B12" to="H5H4"/>
    <trip id="veh_483" type="car" depart="315.6" from="A6B6" to="D9E9"/>
    <trip id="veh_2288" type="car" depart="315.8" from="I14H14" to="J9J8"/>
    <trip id="veh_1663" type="car" depart="316.5" from="O4O3" to="D10E10"/>
    <trip id="veh_25" type="car" depart="316.6" from="H14I14" to="F5E5"/>
    <trip id="veh_519" type="car" depart="316.7" from="A2A3" to="E4F4"/>
    <trip id="veh_1359" type="car" depart="319.1" from="F0F1" to="H6H5"/>
    <trip id="veh_592" type="car" depart="319.3" from="D0C0" to="K4K5"/>
    <trip id="veh_847" type="car" depart="321.9" from="O14N14" to="H6H7"/>
    <trip id="veh_311" type="car" depart="322.7" from="M0N0" to="H8I8"/>
    <trip id="veh_2100" type="car" depart="324.3" from="J0K0" to="F3F4"/>
    <trip id="veh_2425" type="car" depart="324.7" from="F0G0" to="K3K4"/>
    <trip id="veh_1759" type="car" depart="328.8" from="M0L0" to="J5J4"/>
    <trip id="veh_2398" type="car" depart="329.5" from="O14N14" to="J7I7"/>
    <trip id="veh_498" type="car" depart="332.2" from="O7O6" to="H9G9"/>
    <trip id="veh_1650" type="car" depart="332.9" from="A5B5" to="J8I8"/>
    <trip id="veh_1511" type="car" depart="333.1" from="M0M1" to="H8H7"/>
    <trip id="veh_1118" type="car" depart="333.3" from="D14E14" to="E7E6"/>
    <trip id="veh_882" type="car" depart="333.7" from="J0I0" to="H9I9"/>
    <trip id="veh_972" type="car" depart="333.7" from="O1N1" to="J5J4"/>
    <trip id="veh_1335" type="car" depart="337.2" from="I14J14" to="F4G4"/>
    <trip id="veh_2000" type="car" depart="337.8" from="F0F1" to="G8F8"/>
    <trip id="veh_968" type="car" depart="339.3" from="H0G0" to="I9J9"/>
    <trip id="veh_376" type="car" depart="339.6" from="M14L14" to="F3F4"/>
    <trip id="veh_354" type="car" depart="341.2" from="D14C14" to="G4G5"/>
    <trip id="veh_202" type="car" depart="341.9" from="F0E0" to="I10J10"/>
    <trip id="veh_1313" type="car" depart="342.1" from="A9B9" to="E4E5"/>
    <trip id="veh_2266" type="car" depart="344.7" from="J14I14" to="G7H7"/>
    <trip id="veh_1617" type="car" depart="345.0" from="O14O13" to="E6E5"/>
    <trip id="veh_1665" type="car" depart="345.4" from="A12B12" to="G8G7"/>
    <trip id="veh_603" type="car" depart="347.2" from="B0A0" to="F10G10"/>
    <trip id="veh_429" type="car" depart="349.0" from="A7A6" to="K6K7"/>
    <trip id="veh_1427" type="car" depart="349.5" from="A9A10" to="I3I4"/>
    <trip id="veh_1995" type="car" depart="349.5" from="O0N0" to="H10H9"/>
    <trip id="veh_2489" type="car" depart="350.3" from="O9O10" to="I3I4"/>
    <trip id="veh_1246" type="car" depart="350.8" from="L0L1" to="E10F10"/>
    <trip id="veh_193" type="car" depart="351.6" from="O5O4" to="E5E6"/>
    <trip id="veh_2147" type="car" depart="351.7" from="A0A1" to="J11J10"/>
    <trip id="veh_116" type="car" depart="351.8" from="F0F1" to="I9J9"/>
    <trip id="veh_1706" type="car" depart="352.7" from="O1O0" to="H5G5"/>
    <trip id="veh_2255" type="car" depart="354.1" from="H14I14" to="H8H9"/>
    <trip id="veh_1597" type="car" depart="355.4" from="E0D0" to="K6K7"/>
    <trip id="veh_1951" type="car" depart="356.0" from="A10A11" to="I4I5"/>
    <trip id="veh_270" type="car" depart="356.8" from="O9O10" to="G4F4"/>
    <trip id="veh_2107" type="car" depart="357.0" from="C0C1" to="D10E10"/>
    <trip id="veh_1712" type="car" depart="357.4" from="A10A9" to="I4I5"/>
    <trip id="veh_359" type="car" depart="358.0" from="C0B0" to="J9K9"/>
    <trip id="veh_916" type="car" depart="358.1" from="K0K1" to="F8F7"/>
    <trip id="veh_979" type="car" depart="358.2" from="M0M1" to="F10F9"/>
    <trip id="veh_1007" type="car" depart="358.5" from="O5N5" to="G10F10"/>
    <trip id="veh_12" type="car" depart="359.0" from="O7O6" to="F8F7"/>
    <trip id="veh_313" type="car" depart="359.5" from="A11A10" to="H7H6"/>
    <trip id="veh_1715" type="car" depart="360.1" from="O8O7" to="I7J7"/>
    <trip id="veh_1918" type="car" depart="362.1" from="E0F0" to="E3E4"/>
    <trip id="veh_567" type="car" depart="364.3" from="E0F0" to="I6H6"/>
    <trip id="veh_2462" type="car" depart="365.3" from="O5O4" to="I9H9"/>
    <trip id="veh_1054" type="car" depart="365.6" from="O6O5" to="F6E6"/>
    <trip id="veh_1057" type="car" depart="365.6" from="F14F13" to="F6G6"/>
    <trip id="veh_2349" type="car" depart="369.3" from="A0B0" to="H8G8"/>
    <trip id="veh_438" type="car" depart="370.3" from="A13B13" to="G3G4"/>
    <trip id="veh_1092" type="car" depart="371.7" from="O0N0" to="F8F9"/>
    <trip id="veh_2258" type="car" depart="372.8" from="C14B14" to="F8E8"/>
    <trip id="veh_1368" type="car" depart="373.3" from="O10O9" to="I9I10"/>
    <trip id="veh_1486" type="car" depart="373.9" from="H0H1" to="H5I5"/>
    <trip id="veh_2061" type="car" depart="374.7" from="N0O0" to="G6F6"/>
    <trip id="veh_2229" type="car" depart="378.0" from="O5O6" to="H8H9"/>
    <trip id="veh_2292" type="car" depart="383.4" from="H0H1" to="J5J6"/>
    <trip id="veh_175" type="car" depart="383.6" from="F14F13" to="L7K7"/>
    <trip id="veh_101" type="car" depart="384.8" from="K14K13" to="F9F8"/>
    <trip id="veh_1667" type="car" depart="385.0" from="J14J13" to="D8E8"/>
    <trip id="veh_1015" type="car" depart="385.5" from="D0E0" to="H5H6"/>
    <trip id="veh_2087" type="car" depart="385.8" from="B0A0" to="L6K6"/>
    <trip id="veh_431" type="car" depart="386.7" from="O7N7" to="G10H10"/>
    <trip id="veh_951" type="car" depart="387.7" from="A10B10" to="G10H10"/>
    <trip id="veh_210" type="car" depart="388.2" from="D0E0" to="H4I4"/>
    <trip id="veh_1978" type="car" depart="388.3" from="D0E0" to="J11J10"/>
    <trip id="veh_406" type="car" depart="390.5" from="F14F13" to="J6K6"/>
    <trip id="veh_2083" type="car" depart="390.7" from="A9A10" to="L5K5"/>
    <trip id="veh_1910" type="car" depart="391.8" from="L0L1" to="G4G5"/>
    <trip id="veh_1022" type="car" depart="392.5" from="C14C13" to="E8E7"/>
    <trip id="veh_455" type="car" depart="392.8" from="A10B10" to="J9J10"/>
    <trip id="veh_1263" type="car" depart="392.9" from="O2O1" to="E8E7"/>
    <trip id="veh_905" type="car" depart="395.3" from="H14G14" to="H9G9"/>
    <trip id="veh_1803" type="car" depart="400.5" from="O12N12" to="F7E7"/>
    <trip id="veh_678" type="car" depart="400.7" from="A10A11" to="G8F8"/>
    <trip id="veh_348" type="car" depart="401.3" from="A4A5" to="F9E9"/>
    <trip id="veh_1637" type="car" depart="402.7" from="A10B10" to="J4K4"/>
    <trip id="veh_1890" type="car" depart="403.4" from="A7A8" to="F5F4"/>
    <trip id="veh_693" type="car" depart="404.0" from="A5A6" to="J4I4"/>
    <trip id="veh_925" type="car" depart="404.6" from="O12O11" to="I6I7"/>
    <trip id="veh_1877" type="car" depart="407.0" from="E14E13" to="E5F5"/>
    <trip id="veh_1130" type="car" depart="410.6" from="O12O11" to="J5K5"/>
    <trip id="veh_725" type="car" depart="414.0" from="O6O5" to="F8F9"/>
    <trip id="veh_2389" type="car" depart="415.6" from="O3O2" to="E9E8"/>
    <trip id="veh_2308" type="car" depart="415.9" from="O13O14" to="G8F8"/>
    <trip id="veh_331" type="car" depart="416.4" from="A10B10" to="K5K4"/>
    <trip id="veh_113" type="car" depart="416.8" from="O7O8" to="H5H4"/>
    <trip id="veh_1797" type="car" depart="417.1" from="A8A7" to="G3G4"/>
    <trip id="veh_805" type="car" depart="420.3" from="D14E14" to="K6K5"/>
    <trip id="veh_587" type="car" depart="421.9" from="K0J0" to="H5G5"/>
    <trip id="veh_1801" type="car" depart="423.5" from="A3A4" to="L7K7"/>
    <trip id="veh_2095" type="car" depart="423.7" from="G0H0" to="F7F6"/>
    <trip id="veh_1959" type="car" depart="425.3" from="D14C14" to="I8J8"/>
    <trip id="veh_1702" type="car" depart="427.0" from="A12A13" to="G7F7"/>
    <trip id="veh_1244" type="car" depart="429.5" from="M14L14" to="G7G6"/>
    <trip id="veh_1854" type="car" depart="429.9" from="A3A4" to="J6J7"/>
    <trip id="veh_1813" type="car" depart="431.0" from="B0C0" to="L9K9"/>
    <trip id="veh_579" type="car" depart="433.1" from="L14M14" to="E4F4"/>
    <trip id="veh_982" type="car" depart="433.4" from="A8A9" to="I7H7"/>
    <trip id="veh_2322" type="car" depart="435.4" from="O6N6" to="K8J8"/>
    <trip id="veh_1035" type="car" depart="436.0" from="A0B0" to="I6I5"/>
    <trip id="veh_1535" type="car" depart="438.9" from="O9N9" to="H9G9"/>
    <trip id="veh_1264" type="car" depart="440.8" from="A3B3" to="G6H6"/>
    <trip id="veh_843" type="car" depart="442.6" from="A5A4" to="I10H10"/>
    <trip id="veh_1997" type="car" depart="443.3" from="A8B8" to="H8H9"/>
    <trip id="veh_2231" type="car" depart="444.8" from="D0E0" to="E8F8"/>
    <trip id="veh_774" type="car" depart="447.3" from="A6B6" to="I10J10"/>
    <trip id="veh_938" type="car" depart="447.3" from="H14H13" to="F6E6"/>
    <trip id="veh_549" type="car" depart="450.5" from="M14L14" to="E8E7"/>
    <trip id="veh_2038" type="car" depart="450.8" from="N0N1" to="G9F9"/>
    <trip id="veh_804" type="car" depart="451.1" from="M0L0" to="K4J4"/>
    <trip id="veh_1148" type="car" depart="453.6" from="O6O7" to="K11K10"/>
    <trip id="veh_303" type="car" depart="454.6" from="M14L14" to="J8J7"/>
    <trip id="veh_918" type="car" depart="458.7" from="G14F14" to="F6E6"/>
    <trip id="veh_2483" type="car" depart="458.9" from="M14N14" to="J6K6"/>
    <trip id="veh_827" type="car" depart="459.5" from="B14C14" to="J5K5"/>
    <trip id="veh_1790" type="car" depart="460.7" from="I14I13" to="E9E10"/>
    <trip id="veh_1840" type="car" depart="461.6" from="L14L13" to="I8I9"/>
    <trip id="veh_1789" type="car" depart="462.9" from="A10A11" to="L10K10"/>
    <trip id="veh_991" type="car" depart="463.1" from="O3N3" to="D10E10"/>
    <trip id="veh_1494" type="car" depart="463.6" from="A2A1" to="G11G10"/>
    <trip id="veh_1322" type="car" depart="465.2" from="J14K14" to="K8J8"/>
    <trip id="veh_1394" type="car" depart="468.5" from="O10O11" to="J3J4"/>
    <trip id="veh_29" type="car" depart="469.0" from="C0B0" to="H9H10"/>
    <trip id="veh_1105" type="car" depart="470.8" from="J14J13" to="J4I4"/>
    <trip id="veh_1236" type="car" depart="471.2" from="H14I14" to="K9K8"/>
    <trip id="veh_2103" type="car" depart="475.5" from="J0K0" to="E6E5"/>
    <trip id="veh_518" type="car" depart="477.8" from="D14E14" to="K10K9"/>
    <trip id="veh_2370" type="car" depart="479.1" from="D0D1" to="F7E7"/>
    <trip id="veh_2144" type="car" depart="480.9" from="G14G13" to="K4J4"/>
    <trip id="veh_873" type="car" depart="484.6" from="C0D0" to="I10I9"/>
    <trip id="veh_345" type="car" depart="484.8" from="A14B14" to="G5H5"/>
    <trip id="veh_1176" type="car" depart="486.3" from="N14O14" to="H11H10"/>
    <trip id="veh_2080" type="car" depart="487.3" from="N0N1" to="L4K4"/>
    <trip id="veh_532" type="car" depart="488.6" from="A13B13" to="J4J5"/>
    <trip id="veh_143" type="car" depart="489.9" from="G14G13" to="F9G9"/>
    <trip id="veh_1595" type="car" depart="489.9" from="A1A0" to="E10F10"/>
    <trip id="veh_2068" type="car" depart="490.7" from="L14L13" to="J5J6"/>
    <trip id="veh_1321" type="car" depart="491.1" from="N0O0" to="E8F8"/>
    <trip id="veh_2297" type="car" depart="493.1" from="O8O7" to="J8J7"/>
    <trip id="veh_770" type="car" depart="501.6" from="H14H13" to="D9E9"/>
    <trip id="veh_475" type="car" depart="502.3" from="A5B5" to="E3E4"/>
    <trip id="veh_1128" type="car" depart="502.7" from="N14N13" to="F8F7"/>
    <trip id="veh_1048" type="car" depart="506.3" from="L14L13" to="H4H5"/>
    <trip id="veh_2042" type="car" depart="509.1" from="O0O1" to="I6I5"/>
    <trip id="veh_278" type="car" depart="509.8" from="A8A9" to="L6K6"/>
    <trip id="veh_2383" type="car" depart="510.4" from="N14N13" to="H6H5"/>
    <trip id="veh_206" type="car" depart="512.9" from="D14D13" to="D9E9"/>
    <trip id="veh_212" type="car" depart="512.9" from="M14M13" to="L8K8"/>
    <trip id="veh_1826" type="car" depart="513.3" from="L0L1" to="F4G4"/>
    <trip id="veh_1915" type="car" depart="513.8" from="A4B4" to="D4E4"/>
    <trip id="veh_2482" type="car" depart="514.0" from="M0L0" to="E10E9"/>
    <trip id="veh_436" type="car" depart="515.7" from="J14I14" to="J9J8"/>
    <trip id="veh_2096" type="car" depart="516.5" from="A12A11" to="J6I6"/>
    <trip id="veh_149" type="car" depart="517.3" from="O0N0" to="G11G10"/>