<?xml version="1.0" encoding="UTF-8"?>
<configuration>
    <input>
        <net-file value="demo.net.xml" />
        <route-files value="demo.rou.xml" />
        <additional-files value="parking.add.xml,cbd.poly.xml" />
    </input>

    <gui>
        <gui-settings-file value="gui-settings.xml" />
        <start value="false" />
        <delay value="35" />
    </gui>

</configuration>