<trips>
    <vType id="car" accel="2.6" decel="4.5" sigma="0.5" length="5" minGap="2.5" maxSpeed="13.89" color="0,255,0"/>
    <trip id="veh_1555" type="car" depart="3.0" from="G14G13" to="G7G8"/>
    <trip id="veh_662" type="car" depart="3.3" from="K0L0" to="I6H6"/>
    <trip id="veh_514" type="car" depart="6.9" from="O9N9" to="H6G6"/>
    <trip id="veh_527" type="car" depart="6.9" from="O11N11" to="I8H8"/>
    <trip id="veh_1637" type="car" depart="9.9" from="C14B14" to="H6I6"/>
    <trip id="veh_78" type="car" depart="12.2" from="B14B13" to="H6H7"/>
    <trip id="veh_1572" type="car" depart="16.3" from="O8O7" to="I7I6"/>
    <trip id="veh_1986" type="car" depart="16.6" from="F14G14" to="H8H7"/>
    <trip id="veh_859" type="car" depart="17.6" from="A1A2" to="I7I8"/>
    <trip id="veh_1213" type="car" depart="19.5" from="B14A14" to="I6I7"/>
    <trip id="veh_798" type="car" depart="20.3" from="O8N8" to="G8H8"/>
    <trip id="veh_1912" type="car" depart="20.7" from="O14O13" to="G8G7"/>
    <trip id="veh_169" type="car" depart="20.8" from="A2B2" to="H7H6"/>
    <trip id="veh_886" type="car" depart="21.0" from="L14K14" to="H7H6"/>
    <trip id="veh_1446" type="car" depart="24.2" from="O12O11" to="G6G7"/>
    <trip id="veh_1866" type="car" depart="27.1" from="K14L14" to="G7G6"/>
    <trip id="veh_1848" type="car" depart="31.5" from="H0G0" to="H7G7"/>
    <trip id="veh_978" type="car" depart="31.8" from="O8N8" to="H7H6"/>
    <trip id="veh_272" type="car" depart="32.7" from="A5B5" to="G8H8"/>
    <trip id="veh_2263" type="car" depart="32.9" from="E14E13" to="H7H6"/>
    <trip id="veh_2048" type="car" depart="33.1" from="A1A0" to="I7I6"/>
    <trip id="veh_1540" type="car" depart="33.7" from="L14M14" to="I8H8"/>
    <trip id="veh_811" type="car" depart="36.9" from="O13N13" to="G6H6"/>
    <trip id="veh_1363" type="car" depart="37.5" from="A3B3" to="I7I8"/>
    <trip id="veh_968" type="car" depart="37.6" from="O10N10" to="H7G7"/>
    <trip id="veh_406" type="car" depart="38.9" from="A0B0" to="H6G6"/>
    <trip id="veh_1199" type="car" depart="39.2" from="M14N14" to="H6G6"/>
    <trip id="veh_952" type="car" depart="42.5" from="O5O6" to="H6G6"/>
    <trip id="veh_1501" type="car" depart="45.6" from="A9B9" to="G6G7"/>
    <trip id="veh_1295" type="car" depart="46.3" from="O3O2" to="I8H8"/>
    <trip id="veh_1337" type="car" depart="51.3" from="O4O3" to="G6G7"/>
    <trip id="veh_791" type="car" depart="53.7" from="A2B2" to="G6G7"/>
    <trip id="veh_1043" type="car" depart="55.5" from="D14C14" to="H7H6"/>
    <trip id="veh_2010" type="car" depart="55.5" from="A9A10" to="H8H7"/>
    <trip id="veh_34" type="car" depart="61.0" from="A9B9" to="I8I7"/>
    <trip id="veh_1173" type="car" depart="61.4" from="O14N14" to="H7I7"/>
    <trip id="veh_764" type="car" depart="61.8" from="A4A5" to="G6H6"/>
    <trip id="veh_1406" type="car" depart="61.8" from="L14K14" to="H7H6"/>
    <trip id="veh_2177" type="car" depart="61.9" from="O4O3" to="H6G6"/>
    <trip id="veh_1651" type="car" depart="62.2" from="D0D1" to="G6H6"/>
    <trip id="veh_674" type="car" depart="68.5" from="N14N13" to="G7G8"/>
    <trip id="veh_495" type="car" depart="71.2" from="B0A0" to="H6H7"/>
    <trip id="veh_1881" type="car" depart="72.0" from="O10N10" to="H6I6"/>
    <trip id="veh_606" type="car" depart="72.8" from="O1O0" to="G7G8"/>
    <trip id="veh_602" type="car" depart="76.6" from="O3O2" to="H6H7"/>
    <trip id="veh_2196" type="car" depart="77.8" from="H0G0" to="G7H7"/>
    <trip id="veh_727" type="car" depart="77.9" from="G14F14" to="G7G6"/>
    <trip id="veh_1852" type="car" depart="83.8" from="O10O9" to="I6I7"/>
    <trip id="veh_903" type="car" depart="84.0" from="H14G14" to="H8I8"/>
    <trip id="veh_931" type="car" depart="84.2" from="A6A7" to="H6H7"/>
    <trip id="veh_2097" type="car" depart="84.9" from="O8O7" to="G6G7"/>
    <trip id="veh_2000" type="car" depart="85.4" from="C14B14" to="G7H7"/>
    <trip id="veh_247" type="car" depart="85.5" from="O10O9" to="I8H8"/>
    <trip id="veh_1357" type="car" depart="86.4" from="N14M14" to="G6H6"/>
    <trip id="veh_12" type="car" depart="89.2" from="O7O8" to="H7H8"/>
    <trip id="veh_1365" type="car" depart="89.5" from="O1O0" to="H8G8"/>
    <trip id="veh_126" type="car" depart="89.8" from="H0I0" to="G7G8"/>
    <trip id="veh_1860" type="car" depart="90.2" from="E14F14" to="H6I6"/>
    <trip id="veh_1999" type="car" depart="91.0" from="O2O1" to="H7I7"/>
    <trip id="veh_2047" type="car" depart="93.9" from="B14C14" to="H8G8"/>
    <trip id="veh_1767" type="car" depart="94.9" from="N14M14" to="G8H8"/>
    <trip id="veh_1094" type="car" depart="104.0" from="O4N4" to="I7I6"/>
    <trip id="veh_1224" type="car" depart="104.8" from="D0E0" to="H7H8"/>
    <trip id="veh_2114" type="car" depart="107.0" from="H14I14" to="H8I8"/>
    <trip id="veh_1131" type="car" depart="109.6" from="O3O4" to="H6G6"/>
    <trip id="veh_1333" type="car" depart="109.6" from="A4B4" to="H8G8"/>
    <trip id="veh_2057" type="car" depart="109.8" from="I0H0" to="H7G7"/>
    <trip id="veh_1551" type="car" depart="110.9" from="O4O3" to="H7H6"/>
    <trip id="veh_652" type="car" depart="111.4" from="A8B8" to="G8H8"/>
    <trip id="veh_60" type="car" depart="111.7" from="K14L14" to="G6H6"/>
    <trip id="veh_1559" type="car" depart="112.4" from="O0N0" to="I8I7"/>
    <trip id="veh_1608" type="car" depart="112.5" from="L14K14" to="G8G7"/>
    <trip id="veh_653" type="car" depart="113.0" from="K0J0" to="G6H6"/>
    <trip id="veh_198" type="car" depart="114.0" from="O7O8" to="H6G6"/>
    <trip id="veh_1129" type="car" depart="115.0" from="O9O8" to="I8I7"/>
    <trip id="veh_1016" type="car" depart="116.4" from="H14H13" to="G6H6"/>
    <trip id="veh_630" type="car" depart="116.5" from="A11A10" to="I8H8"/>
    <trip id="veh_26" type="car" depart="117.8" from="O2O3" to="G7H7"/>
    <trip id="veh_1201" type="car" depart="118.4" from="A0B0" to="I8H8"/>
    <trip id="veh_2115" type="car" depart="118.7" from="A13A14" to="G7G8"/>
    <trip id="veh_2244" type="car" depart="119.3" from="G14H14" to="H7H8"/>
    <trip id="veh_1796" type="car" depart="124.0" from="K0J0" to="I7I8"/>
    <trip id="veh_894" type="car" depart="124.5" from="F14F13" to="H8G8"/>
    <trip id="veh_2011" type="car" depart="125.0" from="C14D14" to="I8I7"/>
    <trip id="veh_310" type="car" depart="125.5" from="O4O5" to="H6G6"/>
    <trip id="veh_518" type="car" depart="130.9" from="O5N5" to="H7H6"/>
    <trip id="veh_2220" type="car" depart="132.1" from="A0B0" to="I6I7"/>
    <trip id="veh_1146" type="car" depart="132.3" from="E14E13" to="H8H7"/>
    <trip id="veh_996" type="car" depart="133.9" from="O5N5" to="H7H8"/>
    <trip id="veh_1996" type="car" depart="135.7" from="D14D13" to="H7H8"/>
    <trip id="veh_2059" type="car" depart="135.7" from="A2B2" to="G6G7"/>
    <trip id="veh_531" type="car" depart="142.9" from="O13N13" to="H8I8"/>
    <trip id="veh_268" type="car" depart="147.4" from="O4O5" to="G6G7"/>
    <trip id="veh_1284" type="car" depart="147.9" from="O11N11" to="I7I8"/>
    <trip id="veh_922" type="car" depart="148.5" from="J14I14" to="I7I8"/>
    <trip id="veh_192" type="car" depart="149.0" from="F14F13" to="H6H7"/>
    <trip id="veh_672" type="car" depart="149.7" from="D0C0" to="H6H7"/>
    <trip id="veh_1421" type="car" depart="150.1" from="G14G13" to="H8H7"/>
    <trip id="veh_376" type="car" depart="150.5" from="A13A14" to="I8H8"/>
    <trip id="veh_181" type="car" depart="151.9" from="A13A14" to="G6G7"/>
    <trip id="veh_1592" type="car" depart="154.1" from="J0J1" to="H7H6"/>
    <trip id="veh_1963" type="car" depart="154.3" from="O4O3" to="I6H6"/>
    <trip id="veh_2281" type="car" depart="155.8" from="E14D14" to="H7H6"/>
    <trip id="veh_1269" type="car" depart="157.2" from="O12N12" to="H7G7"/>
    <trip id="veh_1394" type="car" depart="157.6" from="D0E0" to="G8G7"/>
    <trip id="veh_1092" type="car" depart="159.2" from="A4A5" to="H6G6"/>
    <trip id="veh_1204" type="car" depart="161.5" from="K0L0" to="H7I7"/>
    <trip id="veh_1590" type="car" depart="161.6" from="K14K13" to="G7H7"/>
    <trip id="veh_146" type="car" depart="161.7" from="O5O4" to="H6H7"/>
    <trip id="veh_1247" type="car" depart="164.1" from="O7O8" to="H7H6"/>
    <trip id="veh_1239" type="car" depart="169.8" from="O13O14" to="I7H7"/>
    <trip id="veh_58" type="car" depart="171.4" from="O12N12" to="H7G7"/>
    <trip id="veh_1579" type="car" depart="172.2" from="O2O1" to="G7H7"/>
    <trip id="veh_2249" type="car" depart="172.7" from="J0J1" to="G6H6"/>
    <trip id="veh_1327" type="car" depart="173.6" from="A11B11" to="H8I8"/>
    <trip id="veh_298" type="car" depart="174.1" from="G14G13" to="H6I6"/>
    <trip id="veh_679" type="car" depart="177.0" from="C0C1" to="H8H7"/>
    <trip id="veh_1990" type="car" depart="177.8" from="A9B9" to="I8I7"/>
    <trip id="veh_2205" type="car" depart="178.0" from="C0B0" to="H7H8"/>
    <trip id="veh_451" type="car" depart="178.7" from="A0B0" to="I7H7"/>
    <trip id="veh_849" type="car" depart="180.0" from="G14H14" to="G6G7"/>
    <trip id="veh_1514" type="car" depart="180.4" from="B14C14" to="H6H7"/>
    <trip id="veh_585" type="car" depart="183.3" from="F14F13" to="H8I8"/>
    <trip id="veh_2243" type="car" depart="184.7" from="O13O14" to="H8H7"/>
    <trip id="veh_1988" type="car" depart="185.0" from="C0B0" to="H7H6"/>
    <trip id="veh_1862" type="car" depart="185.3" from="O11O12" to="H7I7"/>
    <trip id="veh_749" type="car" depart="188.8" from="O12N12" to="H8G8"/>
    <trip id="veh_2458" type="car" depart="192.5" from="N0N1" to="I6H6"/>
    <trip id="veh_2449" type="car" depart="193.0" from="D14D13" to="I7H7"/>
    <trip id="veh_56" type="car" depart="194.9" from="J14K14" to="G7G6"/>
    <trip id="veh_1474" type="car" depart="196.1" from="G14F14" to="I7H7"/>
    <trip id="veh_750" type="car" depart="197.6" from="I0H0" to="I8I7"/>
    <trip id="veh_1985" type="car" depart="197.6" from="A2A3" to="G8G7"/>
    <trip id="veh_2359" type="car" depart="198.6" from="B0B1" to="I7I8"/>
    <trip id="veh_1232" type="car" depart="200.5" from="O11O10" to="I6I7"/>
    <trip id="veh_1580" type="car" depart="202.2" from="N14O14" to="G7G8"/>
    <trip id="veh_961" type="car" depart="204.0" from="O14O13" to="H7G7"/>
    <trip id="veh_1832" type="car" depart="206.0" from="B14C14" to="G7G6"/>
    <trip id="veh_1454" type="car" depart="207.2" from="A9B9" to="I6I7"/>
    <trip id="veh_350" type="car" depart="209.2" from="H0H1" to="I7I6"/>
    <trip id="veh_48" type="car" depart="209.3" from="H0G0" to="G8G7"/>
    <trip id="veh_18" type="car" depart="210.2" from="A1B1" to="H6I6"/>
    <trip id="veh_2118" type="car" depart="217.9" from="I14J14" to="I6H6"/>
    <trip id="veh_1058" type="car" depart="218.7" from="A13A14" to="I6H6"/>
    <trip id="veh_1271" type="car" depart="220.7" from="J14J13" to="G7G8"/>
    <trip id="veh_43" type="car" depart="221.1" from="E14D14" to="G8H8"/>
    <trip id="veh_1107" type="car" depart="226.2" from="H0I0" to="G6G7"/>
    <trip id="veh_1535" type="car" depart="226.5" from="E0E1" to="H6H7"/>
    <trip id="veh_639" type="car" depart="227.4" from="O8O7" to="H7H8"/>
    <trip id="veh_1842" type="car" depart="227.8" from="H14G14" to="G8H8"/>
    <trip id="veh_1639" type="car" depart="229.7" from="A2A1" to="G6G7"/>
    <trip id="veh_266" type="car" depart="230.0" from="O4N4" to="I6H6"/>
    <trip id="veh_2440" type="car" depart="230.9" from="O4O5" to="H6H7"/>
    <trip id="veh_1702" type="car" depart="231.0" from="O14O13" to="I7I8"/>
    <trip id="veh_2020" type="car" depart="231.0" from="O7O8" to="H6I6"/>
    <trip id="veh_1472" type="car" depart="231.1" from="F0E0" to="H7I7"/>
    <trip id="veh_1370" type="car" depart="231.3" from="M14L14" to="G7G8"/>
    <trip id="veh_395" type="car" depart="232.9" from="F0F1" to="G7G6"/>
    <trip id="veh_113" type="car" depart="235.2" from="O0N0" to="I7H7"/>
    <trip id="veh_1504" type="car" depart="235.4" from="O13O12" to="G6H6"/>
    <trip id="veh_1622" type="car" depart="237.1" from="M0M1" to="I7H7"/>
    <trip id="veh_1398" type="car" depart="237.3" from="E14E13" to="H8G8"/>
    <trip id="veh_661" type="car" depart="239.9" from="A3A2" to="G6H6"/>
    <trip id="veh_1057" type="car" depart="241.5" from="O11N11" to="G8G7"/>
    <trip id="veh_475" type="car" depart="242.4" from="A13B13" to="H7H8"/>
    <trip id="veh_1961" type="car" depart="247.2" from="A2A1" to="I7H7"/>
    <trip id="veh_2395" type="car" depart="248.7" from="K0K1" to="H6I6"/>
    <trip id="veh_316" type="car" depart="248.8" from="O8O7" to="H8G8"/>
    <trip id="veh_1822" type="car" depart="248.8" from="A3B3" to="H7H8"/>
    <trip id="veh_286" type="car" depart="249.6" from="O4O5" to="I7I6"/>
    <trip id="veh_2284" type="car" depart="249.8" from="O4O5" to="H6G6"/>
    <trip id="veh_1010" type="car" depart="252.9" from="A6B6" to="I7I6"/>
    <trip id="veh_461" type="car" depart="255.3" from="A4A5" to="G6G7"/>
    <trip id="veh_1090" type="car" depart="256.0" from="O14N14" to="I7H7"/>
    <trip id="veh_1525" type="car" depart="256.3" from="G0G1" to="H7H8"/>
    <trip id="veh_485" type="car" depart="267.7" from="O6O5" to="H7H8"/>
    <trip id="veh_1403" type="car" depart="270.0" from="E14E13" to="I7I8"/>
    <trip id="veh_708" type="car" depart="274.6" from="G0H0" to="G8H8"/>
    <trip id="veh_1260" type="car" depart="275.5" from="A8A7" to="H7I7"/>
    <trip id="veh_2277" type="car" depart="275.7" from="B0B1" to="G8H8"/>
    <trip id="veh_1480" type="car" depart="276.0" from="A6A7" to="H7G7"/>
    <trip id="veh_883" type="car" depart="276.7" from="O13O14" to="G6H6"/>
    <trip id="veh_89" type="car" depart="277.3" from="G14F14" to="G6H6"/>
    <trip id="veh_2022" type="car" depart="281.5" from="O3O2" to="I6H6"/>
    <trip id="veh_1690" type="car" depart="281.6" from="A6A5" to="G6G7"/>
    <trip id="veh_2464" type="car" depart="283.7" from="O12N12" to="H7H6"/>
    <trip id="veh_685" type="car" depart="284.6" from="O7O6" to="H6G6"/>
    <trip id="veh_1761" type="car" depart="289.0" from="M0M1" to="I7I8"/>
    <trip id="veh_1957" type="car" depart="289.1" from="A1A0" to="H8H7"/>
    <trip id="veh_1782" type="car" depart="292.1" from="O5O4" to="H7I7"/>
    <trip id="veh_1117" type="car" depart="293.0" from="M0N0" to="G7H7"/>
    <trip id="veh_876" type="car" depart="293.1" from="L0K0" to="G7G6"/>
    <trip id="veh_422" type="car" depart="293.4" from="O8N8" to="I8I7"/>
    <trip id="veh_2142" type="car" depart="294.4" from="O11O12" to="H8I8"/>
    <trip id="veh_1268" type="car" depart="294.7" from="A6A5" to="H8H7"/>
    <trip id="veh_2433" type="car" depart="294.9" from="O9N9" to="H7H8"/>
    <trip id="veh_1236" type="car" depart="295.6" from="F14F13" to="H6I6"/>
    <trip id="veh_1723" type="car" depart="296.8" from="A3B3" to="H6H7"/>
    <trip id="veh_356" type="car" depart="297.4" from="M0M1" to="I7I6"/>
    <trip id="veh_271" type="car" depart="298.2" from="O6O5" to="I6H6"/>
    <trip id="veh_328" type="car" depart="299.2" from="O5O6" to="H7H6"/>
    <trip id="veh_2451" type="car" depart="301.9" from="L0L1" to="I6H6"/>
    <trip id="veh_1712" type="car" depart="305.1" from="A7A8" to="G6G7"/>
    <trip id="veh_156" type="car" depart="306.5" from="A2B2" to="G7G8"/>
    <trip id="veh_646" type="car" depart="308.4" from="H14H13" to="G7G8"/>
    <trip id="veh_2391" type="car" depart="314.0" from="G14F14" to="G8G7"/>
    <trip id="veh_2200" type="car" depart="315.4" from="A5B5" to="I7I8"/>
    <trip id="veh_1940" type="car" depart="320.7" from="N0M0" to="G6G7"/>
    <trip id="veh_979" type="car" depart="321.6" from="A13A14" to="H8H7"/>
    <trip id="veh_755" type="car" depart="322.1" from="A13A14" to="G7H7"/>
    <trip id="veh_1960" type="car" depart="325.7" from="O3O4" to="I6H6"/>
    <trip id="veh_1803" type="car" depart="326.6" from="O8O7" to="H7G7"/>
    <trip id="veh_1539" type="car" depart="327.3" from="A5A4" to="G8H8"/>
    <trip id="veh_88" type="car" depart="328.2" from="L0K0" to="I8H8"/>
    <trip id="veh_2138" type="car" depart="331.7" from="B14C14" to="H7G7"/>
    <trip id="veh_658" type="car" depart="332.5" from="O11O10" to="G6G7"/>
    <trip id="veh_1703" type="car" depart="333.1" from="O3O2" to="G8G7"/>
    <trip id="veh_2442" type="car" depart="334.2" from="A3A2" to="G8G7"/>
    <trip id="veh_901" type="car" depart="335.2" from="O2O1" to="I7I6"/>
    <trip id="veh_466" type="car" depart="337.4" from="F14E14" to="H6G6"/>
    <trip id="veh_863" type="car" depart="337.5" from="L0M0" to="H7G7"/>
    <trip id="veh_373" type="car" depart="340.0" from="L0K0" to="I7I8"/>
    <trip id="veh_676" type="car" depart="341.1" from="A7A6" to="G7H7"/>
    <trip id="veh_2051" type="car" depart="342.6" from="I0H0" to="I8I7"/>
    <trip id="veh_2223" type="car" depart="346.3" from="O4O3" to="G7G6"/>
    <trip id="veh_1168" type="car" depart="346.6" from="A8A9" to="I7I8"/>
    <trip id="veh_563" type="car" depart="347.2" from="A5A4" to="H8G8"/>
    <trip id="veh_1829" type="car" depart="347.7" from="O0O1" to="H7H8"/>
    <trip id="veh_1121" type="car" depart="348.7" from="A10A9" to="H6H7"/>
    <trip id="veh_2159" type="car" depart="349.8" from="A13A12" to="H6H7"/>
    <trip id="veh_2427" type="car" depart="350.5" from="D0C0" to="H8H7"/>
    <trip id="veh_1338" type="car" depart="350.6" from="A11A10" to="H6G6"/>
    <trip id="veh_1718" type="car" depart="351.8" from="O8N8" to="G7G6"/>
    <trip id="veh_1339" type="car" depart="353.2" from="I14I13" to="G7G8"/>
    <trip id="veh_712" type="car" depart="353.9" from="O5O6" to="G7G8"/>
    <trip id="veh_2382" type="car" depart="355.8" from="O4O5" to="G7G8"/>
    <trip id="veh_593" type="car" depart="357.5" from="D0E0" to="I7H7"/>
    <trip id="veh_1655" type="car" depart="358.5" from="A10A11" to="G7G8"/>
    <trip id="veh_1047" type="car" depart="361.2" from="J0K0" to="H6H7"/>
    <trip id="veh_31" type="car" depart="362.4" from="A8A9" to="G7G8"/>
    <trip id="veh_1048" type="car" depart="362.8" from="O11N11" to="G7G8"/>
    <trip id="veh_1863" type="car" depart="366.2" from="N14N13" to="H6I6"/>
    <trip id="veh_848" type="car" depart="368.2" from="A11A10" to="H8G8"/>
    <trip id="veh_92" type="car" depart="368.5" from="A10B10" to="H7G7"/>
    <trip id="veh_2071" type="car" depart="368.5" from="A9A10" to="I7I8"/>
    <trip id="veh_2151" type="car" depart="370.9" from="D0C0" to="G7G6"/>
    <trip id="veh_609" type="car" depart="373.4" from="A12A11" to="H6G6"/>
    <trip id="veh_2023" type="car" depart="374.2" from="O2O3" to="I8I7"/>
    <trip id="veh_1475" type="car" depart="374.7" from="A6A7" to="H7I7"/>
    <trip id="veh_1437" type="car" depart="377.3" from="O4N4" to="H6H7"/>
    <trip id="veh_1310" type="car" depart="383.4" from="A0A1" to="H8I8"/>
    <trip id="veh_1574" type="car" depart="384.6" from="J14J13" to="I7H7"/>
    <trip id="veh_2256" type="car" depart="386.1" from="F0F1" to="H8G8"/>
    <trip id="veh_553" type="car" depart="389.2" from="O1N1" to="I7I8"/>
    <trip id="veh_1272" type="car" depart="390.5" from="A2B2" to="G6G7"/>
    <trip id="veh_191" type="car" depart="391.8" from="B14B13" to="G6H6"/>
    <trip id="veh_2358" type="car" depart="392.1" from="O0O1" to="I6H6"/>
    <trip id="veh_569" type="car" depart="392.7" from="O11O10" to="I7I8"/>
    <trip id="veh_2235" type="car" depart="393.8" from="O10O11" to="H8G8"/>
    <trip id="veh_862" type="car" depart="395.8" from="K0J0" to="H8I8"/>
    <trip id="veh_592" type="car" depart="396.0" from="D14C14" to="H6H7"/>
    <trip id="veh_231" type="car" depart="397.2" from="L0M0" to="G7G6"/>
    <trip id="veh_1089" type="car" depart="398.2" from="O13N13" to="H7G7"/>
    <trip id="veh_608" type="car" depart="399.5" from="C14C13" to="H6H7"/>
    <trip id="veh_499" type="car" depart="402.7" from="A6A7" to="I8I7"/>
    <trip id="veh_1954" type="car" depart="402.9" from="A8B8" to="I7I8"/>
    <trip id="veh_1140" type="car" depart="403.3" from="A1A2" to="I7I8"/>
    <trip id="veh_2348" type="car" depart="404.3" from="N0M0" to="I8I7"/>
    <trip id="veh_830" type="car" depart="405.7" from="I14J14" to="I7H7"/>
    <trip id="veh_283" type="car" depart="408.2" from="K0J0" to="I6I7"/>
    <trip id="veh_2429" type="car" depart="408.3" from="O2O1" to="H6G6"/>
    <trip id="veh_1739" type="car" depart="410.0" from="A10A11" to="G7G6"/>
    <trip id="veh_438" type="car" depart="410.7" from="A6A7" to="H7H8"/>
    <trip id="veh_2053" type="car" depart="411.2" from="O2O3" to="G8H8"/>
    <trip id="veh_1011" type="car" depart="415.8" from="L0M0" to="G8G7"/>
    <trip id="veh_1397" type="car" depart="417.2" from="F0G0" to="G8G7"/>
    <trip id="veh_2337" type="car" depart="417.6" from="K0K1" to="I8I7"/>
    <trip id="veh_353" type="car" depart="420.1" from="A3A2" to="H8I8"/>
    <trip id="veh_2338" type="car" depart="421.2" from="A7A8" to="G8H8"/>
    <trip id="veh_822" type="car" depart="430.1" from="A12A11" to="I7H7"/>
    <trip id="veh_1620" type="car" depart="430.9" from="G14H14" to="H8G8"/>
    <trip id="veh_1771" type="car" depart="431.5" from="A7A6" to="H6I6"/>
    <trip id="veh_869" type="car" depart="431.8" from="K0K1" to="H6I6"/>
    <trip id="veh_2206" type="car" depart="432.0" from="A6B6" to="H6H7"/>
    <trip id="veh_1603" type="car" depart="432.5" from="A11A12" to="H7H6"/>
    <trip id="veh_2466" type="car" depart="433.0" from="O0N0" to="G6H6"/>
    <trip id="veh_703" type="car" depart="434.1" from="D14C14" to="I8H8"/>
    <trip id="veh_404" type="car" depart="434.4" from="O14O13" to="H8I8"/>
    <trip id="veh_614" type="car" depart="434.9" from="O13O14" to="I6H6"/>
    <trip id="veh_8" type="car" depart="435.3" from="A6B6" to="G6H6"/>
    <trip id="veh_1422" type="car" depart="438.7" from="A7A8" to="I7I8"/>
    <trip id="veh_2070" type="car" depart="439.5" from="M14L14" to="H6H7"/>
    <trip id="veh_221" type="car" depart="439.6" from="O12O13" to="H8G8"/>
    <trip id="veh_116" type="car" depart="442.8" from="E14F14" to="G7G6"/>
    <trip id="veh_361" type="car" depart="444.0" from="A8A7" to="G7H7"/>
    <trip id="veh_1825" type="car" depart="444.2" from="O6N6" to="H7G7"/>
    <trip id="veh_151" type="car" depart="444.6" from="A7A8" to="I6I7"/>
    <trip id="veh_2129" type="car" depart="445.2" from="A1A2" to="G8G7"/>
    <trip id="veh_1427" type="car" depart="446.8" from="O11O12" to="I6I7"/>
    <trip id="veh_1127" type="car" depart="447.0" from="F0G0" to="I6H6"/>
    <trip id="veh_16" type="car" depart="448.4" from="A11B11" to="I7I6"/>
    <trip id="veh_2122" type="car" depart="450.8" from="G14G13" to="H6G6"/>
    <trip id="veh_2172" type="car" depart="452.6" from="G0H0" to="H8H7"/>
    <trip id="veh_1198" type="car" depart="454.9" from="M14L14" to="G6H6"/>
    <trip id="veh_1233" type="car" depart="457.2" from="H0G0" to="G7H7"/>
    <trip id="veh_1904" type="car" depart="458.4" from="O11N11" to="I6H6"/>
    <trip id="veh_157" type="car" depart="460.6" from="I14I13" to="G8G7"/>
    <trip id="veh_317" type="car" depart="460.8" from="O8N8" to="G8H8"/>
    <trip id="veh_1318" type="car" depart="462.4" from="O3O4" to="G8H8"/>
    <trip id="veh_2109" type="car" depart="463.5" from="D0E0" to="G6H6"/>
    <trip id="veh_2002" type="car" depart="466.1" from="A6A7" to="H8G8"/>
    <trip id="veh_519" type="car" depart="470.4" from="O5N5" to="I8H8"/>
    <trip id="veh_1267" type="car" depart="472.1" from="N0M0" to="I7H7"/>
    <trip id="veh_2420" type="car" depart="472.6" from="A3A2" to="H8H7"/>
    <trip id="veh_2385" type="car" depart="473.1" from="K14L14" to="H8G8"/>
    <trip id="veh_2453" type="car" depart="474.1" from="O8N8" to="G8H8"/>
    <trip id="veh_140" type="car" depart="477.6" from="H14I14" to="G7H7"/>
    <trip id="veh_1476" type="car" depart="478.4" from="L14M14" to="H7H6"/>
    <trip id="veh_105" type="car" depart="479.1" from="N14M14" to="H6H7"/>
    <trip id="veh_770" type="car" depart="479.7" from="F14E14" to="I7I8"/>
    <trip id="veh_1823" type="car" depart="481.8" from="B0C0" to="I6I7"/>
    <trip id="veh_455" type="car" depart="482.1" from="H14G14" to="G8H8"/>
    <trip id="veh_409" type="car" depart="483.3" from="O3N3" to="I7H7"/>
    <trip id="veh_1014" type="car" depart="483.4" from="B14C14" to="H8H7"/>
    <trip id="veh_1155" type="car" depart="484.7" from="A6A5" to="G7G8"/>
    <trip id="veh_1036" type="car" depart="485.3" from="A1B1" to="H6H7"/>
    <trip id="veh_1141" type="car" depart="485.4" from="F14G14" to="H6G6"/>
    <trip id="veh_1685" type="car" depart="485.6" from="B14A14" to="H6I6"/>
    <trip id="veh_2183" type="car" depart="485.8" from="E14D14" to="I7H7"/>
    <trip id="veh_1433" type="car" depart="486.1" from="O3O4" to="I8H8"/>
    <trip id="veh_2019" type="car" depart="486.4" from="D14C14" to="H7G7"/>
    <trip id="veh_1556" type="car" depart="487.4" from="D0D1" to="H7G7"/>
    <trip id="veh_1278" type="car" depart="487.8" from="A10A11" to="G7H7"/>
    <trip id="veh_358" type="car" depart="489.7" from="O14N14" to="H8I8"/>
    <trip id="veh_264" type="car" depart="490.1" from="O10N10" to="H7I7"/>
    <trip id="veh_1755" type="car" depart="496.8" from="D0C0" to="G6G7"/>
    <trip id="veh_2068" type="car" depart="498.1" from="O1O2" to="G6G7"/>
    <trip id="veh_797" type="car" depart="498.8" from="B0A0" to="H7I7"/>
    <trip id="veh_977" type="car" depart="500.5" from="B14C14" to="I7I6"/>
    <trip id="veh_1431" type="car" depart="506.5" from="H14I14" to="G6G7"/>
    <trip id="veh_1145" type="car" depart="509.2" from="H14H13" to="G8G7"/>
    <trip id="veh_436" type="car" depart="509.3" from="M14M13" to="G8G7"/>
    <trip id="veh_1523" type="car" depart="509.6" from="A0B0" to="H6H7"/>
    <trip id="veh_1081" type="car" depart="509.7" from="O9O8" to="H7G7"/>
    <trip id="veh_1604" type="car" depart="517.2" from="O10O11" to="G8H8"/>
    <trip id="veh_1645" type="car" depart="518.1" from="A4B4" to="G6H6"/>
    <trip id="veh_278" type="car" depart="520.0" from="B0A0" to="H7I7"/>
    <trip id="veh_1641" type="car" depart="522.0" from="A3B3" to="I8I7"/>
    <trip id="veh_2411" type="car" depart="522.3" from="O2O3" to="H8H7"/>
    <trip id="veh_1941" type="car" depart="526.1" from="I14H14" to="H6I6"/>
    <trip id="veh_2174" type="car" depart="526.1" from="O2N2" to="G7G8"/>
    <trip id="veh_1769" type="car" depart="528.4" from="N14M14" to="I6I7"/>
    <trip id="veh_1736" type="car" depart="531.3" from="L0L1" to="I7H7"/>
    <trip id="veh_1449" type="car" depart="532.6" from="I14I13" to="H6G6"/>
    <trip id="veh_689" type="car" depart="533.5" from="H0H1" to="I8I7"/>
    <trip id="veh_1033" type="car" depart="534.6" from="E0F0" to="I7H7"/>
    <trip id="veh_2409" type="car" depart="536.8" from="A3A2" to="G8H8"/>
    <trip id="veh_2005" type="car" depart="538.5" from="G0F0" to="H6I6"/>
    <trip id="veh_945" type="car" depart="539.6" from="K0L0" to="H6I6"/>
    <trip id="veh_1734" type="car" depart="539.9" from="G14H14" to="H8G8"/>
    <trip id="veh_875" type="car" depart="540.3" from="H14G14" to="G6G7"/>
    <trip id="veh_637" type="car" depart="540.4" from="A11B11" to="H6H7"/>
    <trip id="veh_456" type="car" depart="541.5" from="A1B1" to="G6H6"/>
    <trip id="veh_464" type="car" depart="541.6" from="H0G0" to="G6G7"/>
    <trip id="veh_2219" type="car" depart="543.7" from="L0K0" to="I7I6"/>
    <trip id="veh_234" type="car" depart="544.0" from="E0D0" to="G8H8"/>
    <trip id="veh_172" type="car" depart="546.7" from="O4O5" to="H8H7"/>
    <trip id="veh_627" type="car" depart="548.0" from="C0D0" to="G7G6"/>
    <trip id="veh_1826" type="car" depart="548.6" from="G0G1" to="I7H7"/>
    <trip id="veh_686" type="car" depart="549.5" from="F0G0" to="H8H7"/>
    <trip id="veh_449" type="car" depart="554.1" from="O2N2" to="H7H6"/>
    <trip id="veh_2322" type="car" depart="554.1" from="O9O8" to="G8H8"/>
    <trip id="veh_1020" type="car" depart="555.4" from="O1O2" to="I7I6"/>
    <trip id="veh_965" type="car" depart="556.3" from="D0E0" to="I7I8"/>
    <trip id="veh_408" type="car" depart="562.3" from="N0N1" to="H6I6"/>
    <trip id="veh_239" type="car" depart="563.4" from="D14C14" to="H7I7"/>
    <trip id="veh_1773" type="car" depart="564.9" from="O6O7" to="G8G7"/>
    <trip id="veh_1099" type="car" depart="566.2" from="D14E14" to="G8H8"/>
    <trip id="veh_613" type="car" depart="568.4" from="A4A3" to="I7I6"/>
    <trip id="veh_1648" type="car" depart="569.0" from="H0I0" to="G6G7"/>
    <trip id="veh_1886" type="car" depart="571.3" from="O8O7" to="G7H7"/>
    <trip id="veh_716" type="car" depart="571.7" from="O2N2" to="G7H7"/>
    <trip id="veh_240" type="car" depart="572.8" from="C14C13" to="I6I7"/>
    <trip id="veh_2489" type="car" depart="573.2" from="O4O5" to="I8H8"/>
    <trip id="veh_336" type="car" depart="578.2" from="G14G13" to="H8I8"/>
    <trip id="veh_339" type="car" depart="580.3" from="O5O4" to="H7H6"/>
    <trip id="veh_2350" type="car" depart="581.4" from="M14L14" to="I8I7"/>
    <trip id="veh_2274" type="car" depart="582.6" from="O3O2" to="I7I6"/>
    <trip id="veh_682" type="car" depart="583.3" from="F14G14" to="I8H8"/>
    <trip id="veh_2077" type="car" depart="584.6" from="O3O4" to="I7H7"/>
    <trip id="veh_2269" type="car" depart="587.6" from="O2O1" to="G6G7"/>
    <trip id="veh_291" type="car" depart="591.8" from="O4N4" to="I8I7"/>
    <trip id="veh_2316" type="car" depart="594.0" from="H14H13" to="I7I8"/>
    <trip id="veh_1060" type="car" depart="594.6" from="N0M0" to="H6H7"/>
    <trip id="veh_190" type="car" depart="595.1" from="F14F13" to="H7G7"/>
    <trip id="veh_367" type="car" depart="595.7" from="A4A5" to="H8I8"/>
    <trip id="veh_857" type="car" depart="596.5" from="M14N14" to="I6I7"/>
    <trip id="veh_2459" type="car" depart="597.1" from="F14G14" to="H7I7"/>
    <trip id="veh_237" type="car" depart="598.5" from="H0H1" to="G7G8"/>
    <trip id="veh_737" type="car" depart="600.9" from="K14L14" to="G8H8"/>
    <trip id="veh_439" type="car" depart="601.4" from="B14C14" to="H7I7"/>
    <trip id="veh_1482" type="car" depart="601.7" from="O6O5" to="H7I7"/>