<trips>
    <vType id="car" accel="2.6" decel="4.5" sigma="0.5" length="5" minGap="2.5" maxSpeed="13.89" color="0,255,0"/>
    <trip id="veh_1521" type="car" depart="0.4" from="A4B4" to="C6D6"/>
    <trip id="veh_877" type="car" depart="1.4" from="N0N1" to="G13H13"/>
    <trip id="veh_1930" type="car" depart="2.5" from="D0D1" to="D4D3"/>
    <trip id="veh_838" type="car" depart="4.2" from="A0A1" to="I13H13"/>
    <trip id="veh_486" type="car" depart="5.9" from="O7N7" to="H1H0"/>
    <trip id="veh_904" type="car" depart="9.3" from="A11B11" to="H1H2"/>
    <trip id="veh_1960" type="car" depart="9.4" from="A13A14" to="G9G10"/>
    <trip id="veh_2046" type="car" depart="14.2" from="N14O14" to="J13K13"/>
    <trip id="veh_220" type="car" depart="14.7" from="O9O8" to="B10B11"/>
    <trip id="veh_93" type="car" depart="16.7" from="J0I0" to="L13L12"/>
    <trip id="veh_174" type="car" depart="18.4" from="O7N7" to="F10E10"/>
    <trip id="veh_215" type="car" depart="18.4" from="G0G1" to="K4K3"/>
    <trip id="veh_1055" type="car" depart="18.7" from="A8A7" to="E12E11"/>
    <trip id="veh_2241" type="car" depart="19.1" from="O0O1" to="F5G5"/>
    <trip id="veh_116" type="car" depart="19.7" from="G14G13" to="M13M12"/>
    <trip id="veh_264" type="car" depart="21.6" from="I0J0" to="K5L5"/>
    <trip id="veh_2111" type="car" depart="22.7" from="O6O5" to="N12N11"/>
    <trip id="veh_2317" type="car" depart="23.1" from="M14N14" to="I4H4"/>
    <trip id="veh_655" type="car" depart="23.6" from="G14G13" to="K6K5"/>
    <trip id="veh_2115" type="car" depart="24.3" from="H14I14" to="D10E10"/>
    <trip id="veh_1392" type="car" depart="29.2" from="O12O13" to="N11M11"/>
    <trip id="veh_2203" type="car" depart="29.5" from="G0G1" to="I6J6"/>
    <trip id="veh_1229" type="car" depart="31.1" from="O5N5" to="D7E7"/>
    <trip id="veh_737" type="car" depart="31.2" from="O2O3" to="I13I14"/>
    <trip id="veh_356" type="car" depart="31.4" from="A7B7" to="D10D11"/>
    <trip id="veh_860" type="car" depart="32.6" from="A2A1" to="K13K12"/>
    <trip id="veh_28" type="car" depart="32.9" from="O11O12" to="M2N2"/>
    <trip id="veh_783" type="car" depart="34.4" from="O12N12" to="H12H13"/>
    <trip id="veh_55" type="car" depart="37.6" from="A11A12" to="H9H8"/>
    <trip id="veh_2430" type="car" depart="37.9" from="N14M14" to="H2G2"/>
    <trip id="veh_123" type="car" depart="39.7" from="J0K0" to="E8E9"/>
    <trip id="veh_37" type="car" depart="39.8" from="M0N0" to="G12G13"/>
    <trip id="veh_539" type="car" depart="39.9" from="G14H14" to="K3J3"/>
    <trip id="veh_2463" type="car" depart="39.9" from="J14I14" to="F13G13"/>
    <trip id="veh_1491" type="car" depart="41.0" from="A9B9" to="K11J11"/>
    <trip id="veh_611" type="car" depart="41.3" from="M14L14" to="B9B8"/>
    <trip id="veh_1352" type="car" depart="42.4" from="A14B14" to="J2K2"/>
    <trip id="veh_2455" type="car" depart="42.5" from="A7A6" to="K9L9"/>
    <trip id="veh_1064" type="car" depart="46.7" from="A3A2" to="N4M4"/>
    <trip id="veh_82" type="car" depart="47.6" from="A4B4" to="I1I0"/>
    <trip id="veh_1638" type="car" depart="47.9" from="O1O2" to="H8G8"/>
    <trip id="veh_2298" type="car" depart="48.0" from="A3A4" to="K9J9"/>
    <trip id="veh_2059" type="car" depart="50.4" from="K14J14" to="D12D11"/>
    <trip id="veh_1459" type="car" depart="52.8" from="O12O11" to="B13C13"/>
    <trip id="veh_861" type="car" depart="53.6" from="D14C14" to="F8F7"/>
    <trip id="veh_2239" type="car" depart="54.4" from="E0E1" to="E7F7"/>
    <trip id="veh_1007" type="car" depart="55.7" from="L0M0" to="G7G6"/>
    <trip id="veh_120" type="car" depart="57.2" from="F14E14" to="D8C8"/>
    <trip id="veh_1038" type="car" depart="57.5" from="O14N14" to="G9F9"/>
    <trip id="veh_504" type="car" depart="60.3" from="O9O10" to="H9H8"/>
    <trip id="veh_1081" type="car" depart="62.6" from="G0H0" to="M12N12"/>
    <trip id="veh_956" type="car" depart="65.6" from="A8A9" to="C11C12"/>
    <trip id="veh_866" type="car" depart="66.4" from="I0J0" to="L10L11"/>
    <trip id="veh_2315" type="car" depart="68.0" from="J14J13" to="B6A6"/>
    <trip id="veh_1612" type="car" depart="70.1" from="O9O10" to="B11B12"/>
    <trip id="veh_1028" type="car" depart="71.1" from="O5O6" to="F7F8"/>
    <trip id="veh_419" type="car" depart="71.3" from="F0E0" to="H9H10"/>
    <trip id="veh_1063" type="car" depart="71.5" from="A4A5" to="N7O7"/>
    <trip id="veh_245" type="car" depart="74.2" from="G0H0" to="E11E10"/>
    <trip id="veh_373" type="car" depart="74.4" from="O5N5" to="F12E12"/>
    <trip id="veh_2167" type="car" depart="76.8" from="H0I0" to="K2L2"/>
    <trip id="veh_1968" type="car" depart="77.3" from="B0C0" to="L1L0"/>
    <trip id="veh_943" type="car" depart="79.4" from="O4O3" to="I7I8"/>
    <trip id="veh_1884" type="car" depart="81.1" from="A12B12" to="C7C6"/>
    <trip id="veh_421" type="car" depart="81.3" from="C14B14" to="J6J7"/>
    <trip id="veh_1206" type="car" depart="82.2" from="O11O12" to="C1C2"/>
    <trip id="veh_1507" type="car" depart="84.0" from="A13A12" to="B11B12"/>
    <trip id="veh_668" type="car" depart="84.6" from="A1A0" to="N2M2"/>
    <trip id="veh_2340" type="car" depart="87.3" from="H0I0" to="K7J7"/>
    <trip id="veh_1037" type="car" depart="89.1" from="A11B11" to="J9K9"/>
    <trip id="veh_789" type="car" depart="89.4" from="A1B1" to="D3D2"/>
    <trip id="veh_2344" type="car" depart="90.5" from="C14B14" to="G1G2"/>
    <trip id="veh_2484" type="car" depart="91.4" from="F0G0" to="I11J11"/>
    <trip id="veh_1159" type="car" depart="92.5" from="L0M0" to="C2D2"/>
    <trip id="veh_375" type="car" depart="92.6" from="L14K14" to="G11G10"/>
    <trip id="veh_851" type="car" depart="95.9" from="A10A11" to="M7N7"/>
    <trip id="veh_1696" type="car" depart="96.6" from="A12A13" to="F11F12"/>
    <trip id="veh_666" type="car" depart="97.5" from="M14N14" to="I13I14"/>
    <trip id="veh_567" type="car" depart="99.3" from="O8O7" to="M10M9"/>
    <trip id="veh_552" type="car" depart="103.8" from="A3A2" to="D1C1"/>
    <trip id="veh_1845" type="car" depart="104.7" from="A3B3" to="I5H5"/>
    <trip id="veh_424" type="car" depart="109.2" from="J0I0" to="J13K13"/>
    <trip id="veh_467" type="car" depart="110.2" from="N0O0" to="M6N6"/>
    <trip id="veh_1666" type="car" depart="110.3" from="A0A1" to="H4H3"/>
    <trip id="veh_2253" type="car" depart="110.5" from="A13A14" to="J8I8"/>
    <trip id="veh_2331" type="car" depart="110.5" from="A10A9" to="G9G10"/>
    <trip id="veh_1301" type="car" depart="117.1" from="O3O2" to="C11D11"/>
    <trip id="veh_319" type="car" depart="117.4" from="O10O9" to="E7F7"/>
    <trip id="veh_1770" type="car" depart="117.7" from="O10N10" to="G9G10"/>
    <trip id="veh_2100" type="car" depart="122.1" from="O3O2" to="M1M2"/>
    <trip id="veh_2246" type="car" depart="122.6" from="O12N12" to="E13F13"/>
    <trip id="veh_534" type="car" depart="122.9" from="L0M0" to="M7N7"/>
    <trip id="veh_2142" type="car" depart="124.5" from="E14F14" to="L8K8"/>
    <trip id="veh_226" type="car" depart="125.6" from="I14I13" to="C7C6"/>
    <trip id="veh_1896" type="car" depart="126.5" from="O7N7" to="F6F7"/>
    <trip id="veh_2275" type="car" depart="129.2" from="A11A12" to="E11F11"/>
    <trip id="veh_2423" type="car" depart="129.5" from="K14J14" to="I2I1"/>
    <trip id="veh_1834" type="car" depart="132.3" from="L14L13" to="D7E7"/>
    <trip id="veh_1192" type="car" depart="133.1" from="O12O11" to="F6E6"/>
    <trip id="veh_1474" type="car" depart="133.4" from="E0D0" to="G9H9"/>
    <trip id="veh_2136" type="car" depart="133.5" from="A0A1" to="B10B11"/>
    <trip id="veh_515" type="car" depart="133.6" from="F14E14" to="E9F9"/>
    <trip id="veh_2416" type="car" depart="136.4" from="B0A0" to="C12C13"/>
    <trip id="veh_298" type="car" depart="136.9" from="A1B1" to="J12I12"/>
    <trip id="veh_2023" type="car" depart="139.6" from="O6N6" to="M12N12"/>
    <trip id="veh_667" type="car" depart="139.7" from="A3B3" to="L11L12"/>
    <trip id="veh_1312" type="car" depart="140.4" from="A14A13" to="E3E4"/>
    <trip id="veh_1694" type="car" depart="140.8" from="A13B13" to="G5G4"/>
    <trip id="veh_1812" type="car" depart="142.6" from="A11A10" to="H12H11"/>
    <trip id="veh_2039" type="car" depart="142.9" from="O7O6" to="F3F4"/>
    <trip id="veh_1526" type="car" depart="144.3" from="A3A4" to="F9F10"/>
    <trip id="veh_948" type="car" depart="144.7" from="O10O9" to="L8L9"/>
    <trip id="veh_303" type="car" depart="145.0" from="I0I1" to="C6D6"/>
    <trip id="veh_638" type="car" depart="145.5" from="A13B13" to="L11K11"/>
    <trip id="veh_1195" type="car" depart="147.2" from="K0L0" to="L8M8"/>
    <trip id="veh_2303" type="car" depart="149.0" from="O2O3" to="N9N10"/>
    <trip id="veh_2458" type="car" depart="149.2" from="C0B0" to="N2N3"/>
    <trip id="veh_1794" type="car" depart="152.1" from="C0C1" to="B9C9"/>
    <trip id="veh_986" type="car" depart="152.3" from="A9B9" to="E13F13"/>
    <trip id="veh_1475" type="car" depart="153.1" from="O6O7" to="K8K7"/>
    <trip id="veh_103" type="car" depart="155.1" from="A10A9" to="F2E2"/>
    <trip id="veh_333" type="car" depart="155.7" from="O12O13" to="K2J2"/>
    <trip id="veh_1023" type="car" depart="155.8" from="G0F0" to="J12J13"/>
    <trip id="veh_561" type="car" depart="157.0" from="A8B8" to="D13E13"/>
    <trip id="veh_1035" type="car" depart="160.1" from="O3N3" to="N11O11"/>
    <trip id="veh_2079" type="car" depart="160.4" from="A1A2" to="E3E2"/>
    <trip id="veh_705" type="car" depart="160.9" from="O7O6" to="J1J2"/>
    <trip id="veh_253" type="car" depart="164.8" from="O0N0" to="C8C9"/>
    <trip id="veh_2245" type="car" depart="166.8" from="D0D1" to="H10H11"/>
    <trip id="veh_689" type="car" depart="167.4" from="C0B0" to="D13D12"/>
    <trip id="veh_313" type="car" depart="167.5" from="O4O5" to="E4F4"/>
    <trip id="veh_652" type="car" depart="168.7" from="H14H13" to="N4O4"/>
    <trip id="veh_715" type="car" depart="172.4" from="F0E0" to="I4I5"/>
    <trip id="veh_1826" type="car" depart="174.7" from="A5B5" to="B3C3"/>
    <trip id="veh_755" type="car" depart="177.2" from="L0K0" to="G8G9"/>
    <trip id="veh_2189" type="car" depart="177.9" from="F0G0" to="G11G10"/>
    <trip id="veh_2182" type="car" depart="178.0" from="A12A13" to="L3L4"/>
    <trip id="veh_1510" type="car" depart="179.0" from="A13A14" to="E6E7"/>
    <trip id="veh_1957" type="car" depart="179.4" from="A6A7" to="K9K8"/>
    <trip id="veh_1311" type="car" depart="182.6" from="A12B12" to="F3E3"/>
    <trip id="veh_1059" type="car" depart="183.2" from="O1O0" to="B1B2"/>
    <trip id="veh_1346" type="car" depart="184.3" from="O0N0" to="B4B3"/>
    <trip id="veh_1750" type="car" depart="186.9" from="B14B13" to="L4K4"/>
    <trip id="veh_1519" type="car" depart="187.5" from="A9B9" to="H8I8"/>
    <trip id="veh_1300" type="car" depart="188.4" from="A12B12" to="E9E10"/>
    <trip id="veh_1986" type="car" depart="188.9" from="A8B8" to="F9E9"/>
    <trip id="veh_883" type="car" depart="189.9" from="O1O2" to="I11J11"/>
    <trip id="veh_183" type="car" depart="190.6" from="J14J13" to="K3J3"/>
    <trip id="veh_1924" type="car" depart="190.7" from="O9O8" to="J5J4"/>
    <trip id="veh_283" type="car" depart="194.2" from="L0M0" to="C5C4"/>
    <trip id="veh_2154" type="car" depart="198.7" from="D0C0" to="B12B11"/>
    <trip id="veh_1233" type="car" depart="199.0" from="E0D0" to="M5L5"/>
    <trip id="veh_960" type="car" depart="199.9" from="E14F14" to="J10I10"/>
    <trip id="veh_2070" type="car" depart="200.6" from="O8O7" to="N8M8"/>
    <trip id="veh_2162" type="car" depart="202.5" from="O14N14" to="K5L5"/>
    <trip id="veh_2299" type="car" depart="203.5" from="A0A1" to="J12J11"/>
    <trip id="veh_1586" type="car" depart="204.5" from="O13N13" to="N9N10"/>
    <trip id="veh_2274" type="car" depart="204.7" from="E14D14" to="G8H8"/>
    <trip id="veh_2225" type="car" depart="205.3" from="E14E13" to="I8I7"/>
    <trip id="veh_12" type="car" depart="206.7" from="O13O14" to="D11D10"/>
    <trip id="veh_1588" type="car" depart="207.8" from="A4A5" to="M2N2"/>
    <trip id="veh_874" type="car" depart="209.0" from="N0M0" to="I2I1"/>
    <trip id="veh_553" type="car" depart="210.7" from="L14K14" to="G11F11"/>
    <trip id="veh_1661" type="car" depart="213.9" from="O4N4" to="G8H8"/>
    <trip id="veh_1799" type="car" depart="214.2" from="O11N11" to="B9A9"/>
    <trip id="veh_1890" type="car" depart="216.9" from="A7B7" to="J3K3"/>
    <trip id="veh_447" type="car" depart="218.7" from="A13A14" to="C10C11"/>
    <trip id="veh_2170" type="car" depart="220.7" from="O12O11" to="H6I6"/>
    <trip id="veh_1610" type="car" depart="223.6" from="B14B13" to="F9F8"/>
    <trip id="veh_1146" type="car" depart="224.3" from="D14D13" to="B8B7"/>
    <trip id="veh_374" type="car" depart="230.8" from="D14C14" to="D10E10"/>
    <trip id="veh_2061" type="car" depart="231.6" from="I0I1" to="D8D7"/>
    <trip id="veh_1306" type="car" depart="232.7" from="N14N13" to="J10K10"/>
    <trip id="veh_438" type="car" depart="232.9" from="E14D14" to="E2E3"/>
    <trip id="veh_1854" type="car" depart="233.3" from="D14E14" to="L6M6"/>
    <trip id="veh_2439" type="car" depart="233.7" from="L0M0" to="L9K9"/>
    <trip id="veh_1851" type="car" depart="235.9" from="O13O12" to="H11H12"/>
    <trip id="veh_1441" type="car" depart="237.0" from="A10A9" to="D4D3"/>
    <trip id="veh_2460" type="car" depart="239.2" from="L14M14" to="K11L11"/>
    <trip id="veh_1630" type="car" depart="239.7" from="O0N0" to="D10D11"/>
    <trip id="veh_1501" type="car" depart="242.4" from="A6B6" to="J7K7"/>
    <trip id="veh_1935" type="car" depart="242.6" from="C14B14" to="M1M2"/>
    <trip id="veh_2221" type="car" depart="246.4" from="F0G0" to="L7L8"/>
    <trip id="veh_885" type="car" depart="247.3" from="O2N2" to="E5F5"/>
    <trip id="veh_2446" type="car" depart="247.6" from="O13O14" to="M6M5"/>
    <trip id="veh_2271" type="car" depart="247.9" from="L14K14" to="F6F5"/>
    <trip id="veh_87" type="car" depart="249.1" from="C14D14" to="B10A10"/>
    <trip id="veh_1918" type="car" depart="251.6" from="A6A7" to="I8J8"/>
    <trip id="veh_380" type="car" depart="251.8" from="A0B0" to="M10M11"/>
    <trip id="veh_1727" type="car" depart="253.0" from="O10N10" to="G3G4"/>
    <trip id="veh_460" type="car" depart="253.5" from="B0A0" to="D3C3"/>
    <trip id="veh_651" type="car" depart="253.7" from="M0L0" to="B1C1"/>
    <trip id="veh_925" type="car" depart="260.5" from="O3O4" to="C10B10"/>
    <trip id="veh_952" type="car" depart="261.9" from="G0H0" to="B9B8"/>
    <trip id="veh_1589" type="car" depart="263.7" from="J14K14" to="K3K2"/>
    <trip id="veh_654" type="car" depart="264.9" from="A12B12" to="N5N4"/>
    <trip id="veh_678" type="car" depart="267.7" from="O2O1" to="E8D8"/>
    <trip id="veh_1286" type="car" depart="267.9" from="C0D0" to="N8N9"/>
    <trip id="veh_2336" type="car" depart="268.1" from="K0J0" to="H11H10"/>
    <trip id="veh_568" type="car" depart="268.7" from="O5O6" to="N12M12"/>
    <trip id="veh_609" type="car" depart="268.9" from="A9A8" to="M7L7"/>
    <trip id="veh_1111" type="car" depart="269.3" from="A13A12" to="J3I3"/>
    <trip id="veh_793" type="car" depart="272.3" from="G0H0" to="J10J9"/>
    <trip id="veh_474" type="car" depart="273.5" from="H14H13" to="D4C4"/>
    <trip id="veh_2179" type="car" depart="273.7" from="M14L14" to="I8H8"/>
    <trip id="veh_2186" type="car" depart="276.9" from="N0O0" to="F7G7"/>
    <trip id="veh_1868" type="car" depart="277.6" from="O9N9" to="M12M13"/>
    <trip id="veh_1151" type="car" depart="281.2" from="M14M13" to="M3L3"/>
    <trip id="veh_2222" type="car" depart="284.2" from="O6O5" to="C3C4"/>
    <trip id="veh_1594" type="car" depart="284.7" from="A6A5" to="G1G0"/>
    <trip id="veh_514" type="car" depart="284.8" from="L14K14" to="M13L13"/>
    <trip id="veh_1987" type="car" depart="285.0" from="A13A12" to="J7K7"/>
    <trip id="veh_502" type="car" depart="285.1" from="A11A12" to="L8L9"/>
    <trip id="veh_2065" type="car" depart="285.3" from="G0H0" to="M9M8"/>
    <trip id="veh_1891" type="car" depart="287.4" from="D0E0" to="E11E10"/>
    <trip id="veh_2338" type="car" depart="291.3" from="O11O12" to="D8D9"/>
    <trip id="veh_1662" type="car" depart="291.4" from="L14K14" to="K3L3"/>
    <trip id="veh_845" type="car" depart="292.1" from="C14B14" to="H9G9"/>
    <trip id="veh_1067" type="car" depart="294.9" from="O8N8" to="H3G3"/>
    <trip id="veh_1056" type="car" depart="295.5" from="A13B13" to="D8D7"/>
    <trip id="veh_1282" type="car" depart="298.5" from="G0G1" to="L5L4"/>
    <trip id="veh_1427" type="car" depart="298.9" from="A6A5" to="B1B0"/>
    <trip id="veh_1100" type="car" depart="304.4" from="O11N11" to="B7B6"/>
    <trip id="veh_1133" type="car" depart="305.0" from="K14L14" to="N6O6"/>
    <trip id="veh_2" type="car" depart="305.1" from="O7O6" to="F3G3"/>
    <trip id="veh_1194" type="car" depart="306.8" from="O4N4" to="B5B6"/>
    <trip id="veh_591" type="car" depart="307.0" from="C14B14" to="I11I10"/>
    <trip id="veh_2178" type="car" depart="307.1" from="O12O13" to="K11J11"/>
    <trip id="veh_585" type="car" depart="309.5" from="I0J0" to="B12B13"/>
    <trip id="veh_207" type="car" depart="310.0" from="A6A7" to="H11H10"/>
    <trip id="veh_1278" type="car" depart="315.4" from="O9N9" to="M12M11"/>
    <trip id="veh_1611" type="car" depart="315.8" from="M14M13" to="J3I3"/>
    <trip id="veh_1920" type="car" depart="315.8" from="C0B0" to="N5M5"/>
    <trip id="veh_1717" type="car" depart="316.7" from="C0D0" to="N11N12"/>
    <trip id="veh_1009" type="car" depart="322.3" from="K14L14" to="E1D1"/>
    <trip id="veh_314" type="car" depart="324.4" from="A3A4" to="J7K7"/>
    <trip id="veh_135" type="car" depart="326.3" from="A10A9" to="N5N4"/>
    <trip id="veh_1773" type="car" depart="328.7" from="D14E14" to="E8E9"/>
    <trip id="veh_1499" type="car" depart="329.0" from="A14A13" to="M11N11"/>
    <trip id="veh_1016" type="car" depart="330.4" from="O4O3" to="J12K12"/>
    <trip id="veh_1906" type="car" depart="330.6" from="G0G1" to="J11J10"/>
    <trip id="veh_1759" type="car" depart="330.7" from="A7A8" to="B8B7"/>
    <trip id="veh_236" type="car" depart="331.5" from="I0I1" to="B4B5"/>
    <trip id="veh_241" type="car" depart="332.0" from="C0C1" to="J11K11"/>
    <trip id="veh_1176" type="car" depart="332.1" from="O9O8" to="D11D10"/>
    <trip id="veh_23" type="car" depart="336.9" from="A3A2" to="N4N3"/>
    <trip id="veh_823" type="car" depart="337.0" from="A5A4" to="H3H2"/>
    <trip id="veh_1921" type="car" depart="337.3" from="O14O13" to="N7M7"/>
    <trip id="veh_2220" type="car" depart="337.9" from="A4A5" to="J1J0"/>
    <trip id="veh_1907" type="car" depart="339.2" from="K14K13" to="M1M2"/>
    <trip id="veh_816" type="car" depart="341.7" from="O10N10" to="L1K1"/>
    <trip id="veh_2033" type="car" depart="342.6" from="A4A5" to="F5G5"/>
    <trip id="veh_1308" type="car" depart="343.4" from="A6A5" to="G5G4"/>
    <trip id="veh_24" type="car" depart="344.2" from="G14F14" to="B10C10"/>
    <trip id="veh_1698" type="car" depart="344.8" from="C14B14" to="B3A3"/>
    <trip id="veh_1981" type="car" depart="350.7" from="O7O6" to="F3G3"/>
    <trip id="veh_1870" type="car" depart="353.2" from="D0E0" to="C3D3"/>
    <trip id="veh_2400" type="car" depart="355.1" from="C14C13" to="G7F7"/>
    <trip id="veh_998" type="car" depart="355.2" from="O9N9" to="I2H2"/>
    <trip id="veh_1125" type="car" depart="355.7" from="O9O10" to="N1N2"/>
    <trip id="veh_1818" type="car" depart="356.0" from="A4A5" to="K5K4"/>
    <trip id="veh_977" type="car" depart="358.1" from="M14N14" to="N5N4"/>
    <trip id="veh_1489" type="car" depart="361.2" from="O4O5" to="M7M8"/>
    <trip id="veh_1746" type="car" depart="361.3" from="G0F0" to="B11B10"/>
    <trip id="veh_1218" type="car" depart="361.9" from="O8O9" to="G12H12"/>
    <trip id="veh_1094" type="car" depart="362.5" from="G14F14" to="K5K4"/>
    <trip id="veh_98" type="car" depart="367.4" from="O10O9" to="G13H13"/>
    <trip id="veh_1847" type="car" depart="368.6" from="A7A8" to="M5M6"/>
    <trip id="veh_1547" type="car" depart="368.8" from="O3N3" to="D4C4"/>
    <trip id="veh_2165" type="car" depart="371.5" from="A7B7" to="J8I8"/>
    <trip id="veh_1931" type="car" depart="373.4" from="O13O12" to="H10H11"/>
    <trip id="veh_1948" type="car" depart="373.5" from="A3A2" to="I6H6"/>
    <trip id="veh_1848" type="car" depart="374.6" from="J0J1" to="I2I3"/>
    <trip id="veh_592" type="car" depart="374.7" from="O9O10" to="K6K5"/>
    <trip id="veh_2101" type="car" depart="374.8" from="A8A7" to="D3D4"/>
    <trip id="veh_680" type="car" depart="376.7" from="A8B8" to="G13H13"/>
    <trip id="veh_899" type="car" depart="378.1" from="L14L13" to="J8I8"/>
    <trip id="veh_1702" type="car" depart="378.6" from="A1A2" to="G3H3"/>
    <trip id="veh_1250" type="car" depart="379.0" from="H0G0" to="J10J11"/>
    <trip id="veh_1113" type="car" depart="380.6" from="A2A3" to="D5C5"/>
    <trip id="veh_888" type="car" depart="382.7" from="N0N1" to="H2H3"/>
    <trip id="veh_300" type="car" depart="383.1" from="K14K13" to="J3J2"/>
    <trip id="veh_1436" type="car" depart="383.4" from="A0A1" to="G6G5"/>
    <trip id="veh_309" type="car" depart="387.0" from="O6O7" to="N11N12"/>
    <trip id="veh_11" type="car" depart="388.6" from="O9O10" to="I6H6"/>
    <trip id="veh_1748" type="car" depart="388.7" from="B14A14" to="N11N10"/>
    <trip id="veh_1026" type="car" depart="393.1" from="D14E14" to="E10D10"/>
    <trip id="veh_1117" type="car" depart="394.8" from="O3O4" to="J11K11"/>
    <trip id="veh_454" type="car" depart="394.9" from="O12N12" to="I6J6"/>
    <trip id="veh_482" type="car" depart="397.6" from="O13N13" to="K2L2"/>
    <trip id="veh_756" type="car" depart="398.1" from="A8A7" to="C13D13"/>
    <trip id="veh_645" type="car" depart="399.4" from="A1A2" to="F1F0"/>
    <trip id="veh_1294" type="car" depart="399.5" from="A6A7" to="D2D1"/>
    <trip id="veh_806" type="car" depart="400.4" from="E0D0" to="J10J11"/>
    <trip id="veh_2431" type="car" depart="400.9" from="K14J14" to="B7B6"/>
    <trip id="veh_1664" type="car" depart="401.0" from="A10A11" to="L13K13"/>
    <trip id="veh_736" type="car" depart="404.2" from="A12A11" to="F8E8"/>
    <trip id="veh_299" type="car" depart="405.4" from="A9A8" to="J4I4"/>
    <trip id="veh_2289" type="car" depart="406.1" from="A2A3" to="E13E14"/>
    <trip id="veh_1971" type="car" depart="407.7" from="B14B13" to="I2H2"/>
    <trip id="veh_158" type="car" depart="408.4" from="O3O2" to="D4D5"/>
    <trip id="veh_1862" type="car" depart="411.0" from="C0C1" to="M1N1"/>
    <trip id="veh_2424" type="car" depart="411.5" from="F14G14" to="E12E13"/>
    <trip id="veh_275" type="car" depart="412.6" from="H0G0" to="N7O7"/>
    <trip id="veh_2125" type="car" depart="414.9" from="F0E0" to="J11J10"/>
    <trip id="veh_2328" type="car" depart="417.0" from="O10O9" to="K7L7"/>
    <trip id="veh_2066" type="car" depart="417.4" from="A14A13" to="D11D10"/>
    <trip id="veh_442" type="car" depart="418.7" from="M0L0" to="B7A7"/>
    <trip id="veh_1766" type="car" depart="419.6" from="G14F14" to="B10A10"/>
    <trip id="veh_1344" type="car" depart="421.1" from="D14E14" to="N3M3"/>
    <trip id="veh_731" type="car" depart="424.3" from="A13A14" to="K10L10"/>
    <trip id="veh_800" type="car" depart="429.4" from="O14N14" to="K9K8"/>
    <trip id="veh_1295" type="car" depart="430.5" from="B14A14" to="N3O3"/>
    <trip id="veh_653" type="car" depart="435.6" from="H14H13" to="D4D5"/>
    <trip id="veh_306" type="car" depart="436.0" from="F14F13" to="D11C11"/>
    <trip id="veh_2199" type="car" depart="437.0" from="O1O0" to="L3L4"/>
    <trip id="veh_2493" type="car" depart="437.5" from="I14H14" to="F9F10"/>
    <trip id="veh_932" type="car" depart="438.8" from="E0E1" to="H11I11"/>
    <trip id="veh_372" type="car" depart="439.3" from="A8A7" to="B12A12"/>
    <trip id="veh_231" type="car" depart="442.2" from="J14K14" to="D13D14"/>
    <trip id="veh_739" type="car" depart="442.3" from="A5A6" to="K2J2"/>
    <trip id="veh_670" type="car" depart="442.8" from="D0D1" to="N5O5"/>
    <trip id="veh_1629" type="car" depart="443.2" from="B14A14" to="K1L1"/>
    <trip id="veh_558" type="car" depart="443.6" from="O1O0" to="L13L12"/>
    <trip id="veh_795" type="car" depart="447.2" from="O9O8" to="E12D12"/>
    <trip id="veh_415" type="car" depart="447.6" from="K0K1" to="I3I2"/>
    <trip id="veh_1926" type="car" depart="450.2" from="G14H14" to="M1N1"/>
    <trip id="veh_2243" type="car" depart="451.0" from="A8A9" to="M2N2"/>
    <trip id="veh_1161" type="car" depart="457.6" from="H14I14" to="F9F10"/>
    <trip id="veh_2278" type="car" depart="458.2" from="O13O14" to="G9G8"/>
    <trip id="veh_1413" type="car" depart="458.3" from="O3N3" to="B2A2"/>
    <trip id="veh_889" type="car" depart="459.9" from="A0B0" to="N9N10"/>
    <trip id="veh_1565" type="car" depart="459.9" from="A6A7" to="C13C14"/>
    <trip id="veh_1254" type="car" depart="460.0" from="A1A0" to="J1J2"/>
    <trip id="veh_662" type="car" depart="461.8" from="F0F1" to="C9D9"/>
    <trip id="veh_384" type="car" depart="468.6" from="H14G14" to="M11M10"/>
    <trip id="veh_2226" type="car" depart="468.6" from="A6B6" to="B8B7"/>
    <trip id="veh_914" type="car" depart="476.9" from="A11A10" to="M1N1"/>
    <trip id="veh_2202" type="car" depart="477.1" from="F14E14" to="F4E4"/>
    <trip id="veh_641" type="car" depart="478.3" from="O14N14" to="L9L10"/>
    <trip id="veh_1567" type="car" depart="478.5" from="O7O8" to="K9J9"/>
    <trip id="veh_976" type="car" depart="478.6" from="A1A2" to="I6J6"/>
    <trip id="veh_1542" type="car" depart="479.6" from="L14M14" to="J2I2"/>
    <trip id="veh_1080" type="car" depart="480.6" from="A10A11" to="M11M10"/>
    <trip id="veh_1689" type="car" depart="480.8" from="A8A7" to="L9L10"/>
    <trip id="veh_1603" type="car" depart="483.6" from="O3O4" to="D2D1"/>
    <trip id="veh_1756" type="car" depart="483.8" from="O0N0" to="L10L11"/>
    <trip id="veh_657" type="car" depart="485.3" from="I14I13" to="C3B3"/>
    <trip id="veh_1452" type="car" depart="486.6" from="O7O8" to="B8A8"/>
    <trip id="veh_2127" type="car" depart="490.0" from="I14H14" to="G8G9"/>
    <trip id="veh_1002" type="car" depart="491.3" from="L14L13" to="N8N9"/>
    <trip id="veh_1613" type="car" depart="492.6" from="A0A1" to="N10N11"/>
    <trip id="veh_2284" type="car" depart="493.4" from="O12O11" to="C7C6"/>
    <trip id="veh_690" type="car" depart="493.7" from="A9A8" to="N7O7"/>
    <trip id="veh_1015" type="car" depart="494.5" from="O3O2" to="C10C9"/>
    <trip id="veh_248" type="car" depart="501.2" from="O5O6" to="D2D1"/>
    <trip id="veh_2002" type="car" depart="501.4" from="A13A12" to="C9C10"/>
    <trip id="veh_1568" type="car" depart="501.7" from="A11A10" to="F13E13"/>
    <trip id="veh_1864" type="car" depart="502.6" from="M0M1" to="C4C3"/>
    <trip id="veh_1213" type="car" depart="502.7" from="B14A14" to="B5A5"/>
    <trip id="veh_1181" type="car" depart="505.0" from="O0O1" to="K5L5"/>
    <trip id="veh_1615" type="car" depart="506.6" from="K0L0" to="H9I9"/>
    <trip id="veh_524" type="car" depart="506.8" from="L14L13" to="H6I6"/>
    <trip id="veh_1011" type="car" depart="508.4" from="F14G14" to="B1A1"/>
    <trip id="veh_896" type="car" depart="509.1" from="A4B4" to="F9F8"/>
    <trip id="veh_1537" type="car" depart="509.2" from="E0D0" to="J8K8"/>
    <trip id="veh_386" type="car" depart="510.2" from="H0H1" to="J12J11"/>
    <trip id="veh_2475" type="car" depart="514.1" from="A6A7" to="C12B12"/>
    <trip id="veh_1167" type="car" depart="515.9" from="A8A7" to="D7C7"/>
    <trip id="veh_1711" type="car" depart="515.9" from="M0N0" to="I10I9"/>
    <trip id="veh_2411" type="car" depart="515.9" from="C14C13" to="F10E10"/>
    <trip id="veh_1515" type="car" depart="516.9" from="K14J14" to="B8B9"/>
    <trip id="veh_1155" type="car" depart="518.4" from="C14B14" to="L2M2"/>
    <trip id="veh_2391" type="car" depart="518.8" from="O4O3" to="F7G7"/>
    <trip id="veh_108" type="car" depart="523.0" from="O6N6" to="L9L8"/>
    <trip id="veh_818" type="car" depart="523.3" from="M0L0" to="K4K5"/>
    <trip id="veh_849" type="car" depart="523.5" from="O13O12" to="G10G11"/>
    <trip id="veh_1404" type="car" depart="523.7" from="A6A5" to="H2H3"/>
    <trip id="veh_1003" type="car" depart="524.2" from="L14L13" to="J10I10"/>
    <trip id="veh_1718" type="car" depart="524.3" from="A2B2" to="D11E11"/>
    <trip id="veh_52" type="car" depart="530.0" from="B0C0" to="M6M7"/>
    <trip id="veh_1316" type="car" depart="531.6" from="D0C0" to="K7K6"/>
    <trip id="veh_2086" type="car" depart="534.8" from="A5B5" to="L8K8"/>
    <trip id="veh_1087" type="car" depart="536.6" from="G0G1" to="N10N11"/>
    <trip id="veh_1821" type="car" depart="537.5" from="B14B13" to="F13E13"/>
    <trip id="veh_1504" type="car" depart="538.0" from="O14N14" to="G8G7"/>
    <trip id="veh_1551" type="car" depart="539.6" from="H0I0" to="F10E10"/>
    <trip id="veh_1076" type="car" depart="539.9" from="G14F14" to="J6I6"/>
    <trip id="veh_312" type="car" depart="540.6" from="E0D0" to="H3H2"/>
    <trip id="veh_1541" type="car" depart="540.9" from="E14F14" to="E9D9"/>
    <trip id="veh_826" type="car" depart="541.8" from="B14A14" to="K8J8"/>
    <trip id="veh_726" type="car" depart="543.4" from="I14J14" to="D10C10"/>
    <trip id="veh_2356" type="car" depart="544.1" from="K14J14" to="E13E12"/>
    <trip id="veh_1340" type="car" depart="544.9" from="J0K0" to="J6J7"/>
    <trip id="veh_222" type="car" depart="546.3" from="A6A7" to="J3J2"/>
    <trip id="veh_540" type="car" depart="546.8" from="A7A6" to="G5G4"/>
    <trip id="veh_272" type="car" depart="547.3" from="A7A6" to="I13H13"/>
    <trip id="veh_1135" type="car" depart="548.2" from="O6O5" to="N2M2"/>
    <trip id="veh_1422" type="car" depart="548.3" from="O3N3" to="B1C1"/>