<?xml version="1.0" encoding="UTF-8"?>

<!-- generated on 2026-04-18T03:51:41.608112+09:00 by Eclipse SUMO duarouter 1.26.0
<duarouterConfiguration xmlns:xsi="http://www.w3.org/2001/XMLSchema-instance" xsi:noNamespaceSchemaLocation="http://sumo.dlr.de/xsd/duarouterConfiguration.xsd">

    <input>
        <net-file value="src/sumo_configs/optimal_cbd.net.xml"/>
        <route-files value="src/sumo_configs/demo.trips.xml"/>
    </input>

    <output>
        <output-file value="src/sumo_configs/demo.rou.xml"/>
    </output>

    <report>
        <ignore-errors value="true"/>
    </report>

</duarouterConfiguration>
-->

<routes xmlns:xsi="http://www.w3.org/2001/XMLSchema-instance" xsi:noNamespaceSchemaLocation="http://sumo.dlr.de/xsd/routes_file.xsd">
    <vType id="car" length="5.00" minGap="2.50" maxSpeed="13.89" color="green" accel="2.6" decel="4.5" sigma="0.5"/>
    <vehicle id="veh_1801" type="car" depart="6.10">
        <route edges="O13N13 N13M13 M13L13 L13K13 K13K12 K12K11 K11K10 K10K9 K9J9 J9I9 I9H9 H9G9 G9F9 F9F10"/>
    </vehicle>
    <vehicle id="veh_1712" type="car" depart="7.30">
        <route edges="M0L0 L0K0 K0J0 J0I0 I0H0 H0G0 G0F0 F0E0 E0D0 D0D1 D1D2 D2D3 D3D4 D4D5 D5D6 D6D7 D7D8 D8D9 D9D10 D10D11 D11D12 D12D13 D13C13 C13C12"/>
    </vehicle>
    <vehicle id="veh_1407" type="car" depart="8.20">
        <route edges="O14O13 O13N13 N13M13 M13L13 L13K13 K13J13 J13I13 I13H13 H13G13 G13F13 F13E13 E13F13"/>
    </vehicle>
    <vehicle id="veh_146" type="car" depart="9.30">
        <route edges="C0C1 C1C2 C2C3 C3C4 C4D4 D4E4 E4F4 F4G4 G4H4 H4I4 I4J4 J4K4 K4L4 L4M4 M4N4 N4N5"/>
    </vehicle>
    <vehicle id="veh_2124" type="car" depart="10.90">
        <route edges="J0J1 J1J2 J2J3 J3J4 J4J5 J5J6 J6J7 J7J8 J8J9 J9K9 K9L9 L9M9 M9M8"/>
    </vehicle>
    <vehicle id="veh_976" type="car" depart="12.50">
        <route edges="C0B0 B0B1 B1C1 C1D1"/>
    </vehicle>
    <vehicle id="veh_98" type="car" depart="13.80">
        <route edges="J14K14 K14K13 K13J13 J13I13 I13H13 H13G13 G13F13 F13E13 E13E12"/>
    </vehicle>
    <vehicle id="veh_360" type="car" depart="14.40">
        <route edges="O0O1 O1O2 O2O3 O3O4 O4O5 O5O6 O6N6 N6N5"/>
    </vehicle>
    <vehicle id="veh_2069" type="car" depart="14.50">
        <route edges="O14N14 N14N13 N13N12 N12N11 N11N10 N10N9 N9N8 N8N7 N7M7 M7L7 L7L8"/>
    </vehicle>
    <vehicle id="veh_2161" type="car" depart="16.40">
        <route edges="A0A1 A1A2 A2B2 B2C2 C2D2 D2E2 E2F2 F2G2 G2G3"/>
    </vehicle>
    <vehicle id="veh_444" type="car" depart="16.80">
        <route edges="I14H14 H14G14 G14F14 F14E14 E14D14 D14D13 D13D12 D12D11 D11D10 D10D9 D9D8 D8D7 D7D6 D6D5 D5D4"/>
    </vehicle>
    <vehicle id="veh_463" type="car" depart="23.00">
        <route edges="O12O11 O11N11 N11M11 M11L11 L11K11 K11J11 J11I11 I11H11 H11G11 G11F11 F11E11 E11D11 D11C11 C11B11 B11B10"/>
    </vehicle>
    <vehicle id="veh_196" type="car" depart="23.90">
        <route edges="B14A14 A14A13 A13A12 A12A11 A11A10 A10B10 B10C10 C10D10"/>
    </vehicle>
    <vehicle id="veh_1454" type="car" depart="27.40">
        <route edges="O1O0 O0N0 N0M0 M0L0 L0K0 K0J0 J0I0 I0H0 H0G0 G0F0 F0E0 E0D0 D0C0 C0C1 C1C2 C2C3"/>
    </vehicle>
    <vehicle id="veh_339" type="car" depart="27.70">
        <route edges="F0E0 E0E1 E1E2 E2E3 E3E4 E4E5 E5E6 E6E7 E7E8 E8E9 E9E10 E10E11 E11E12 E12F12 F12G12 G12H12 H12I12 I12J12 J12K12 K12L12 L12M12 M12N12"/>
    </vehicle>
    <vehicle id="veh_1473" type="car" depart="27.80">
        <route edges="O3O2 O2O1 O1N1 N1M1 M1L1 L1K1 K1J1 J1I1 I1H1 H1G1 G1F1 F1E1 E1D1 D1C1"/>
    </vehicle>
    <vehicle id="veh_1748" type="car" depart="29.40">
        <route edges="L0L1 L1L0 L0K0 K0K1"/>
    </vehicle>
    <vehicle id="veh_173" type="car" depart="32.00">
        <route edges="A11B11 B11C11 C11D11 D11D10 D10D9 D9D8 D8D7 D7D6 D6D5 D5D4 D4D3 D3D2 D2E2"/>
    </vehicle>
    <vehicle id="veh_1219" type="car" depart="32.50">
        <route edges="A0B0 B0B1 B1B2 B2B3 B3B4 B4B5 B5B6 B6B7 B7B8 B8B9 B9B10 B10C10 C10D10 D10E10 E10F10 F10G10 G10H10 H10I10 I10J10 J10K10 K10L10 L10M10 M10N10 N10O10 O10O11 O11N11"/>
    </vehicle>
    <vehicle id="veh_477" type="car" depart="35.00">
        <route edges="O7O6 O6O5 O5O4 O4O3 O3O2 O2O1 O1N1 N1M1 M1L1"/>
    </vehicle>
    <vehicle id="veh_1405" type="car" depart="37.50">
        <route edges="D14D13 D13D12 D12D11 D11D10 D10D9 D9C9 C9B9 B9B10"/>
    </vehicle>
    <vehicle id="veh_838" type="car" depart="37.80">
        <route edges="I0J0 J0J1 J1J2 J2J3 J3J4 J4J5 J5J6 J6J7 J7J8 J8K8 K8L8 L8M8 M8M7"/>
    </vehicle>
    <vehicle id="veh_2060" type="car" depart="38.50">
        <route edges="O6N6 N6N5 N5N4 N4N3 N3N2 N2N3"/>
    </vehicle>
    <vehicle id="veh_1995" type="car" depart="39.30">
        <route edges="O7O8 O8N8 N8N7 N7M7 M7L7 L7K7 K7J7 J7I7 I7H7 H7G7 G7F7 F7E7 E7D7"/>
    </vehicle>
    <vehicle id="veh_414" type="car" depart="40.70">
        <route edges="O13O12 O12O11 O11O10 O10O9 O9O8 O8O7 O7O6 O6O5 O5O4 O4O3 O3O2 O2O1 O1N1 N1M1"/>
    </vehicle>
    <vehicle id="veh_220" type="car" depart="42.80">
        <route edges="O14N14 N14N13 N13M13"/>
    </vehicle>
    <vehicle id="veh_1176" type="car" depart="43.50">
        <route edges="O10O9 O9O8 O8O7 O7O6 O6O5 O5O4 O4O3 O3O2 O2N2 N2M2 M2L2 L2K2 K2K3"/>
    </vehicle>
    <vehicle id="veh_2477" type="car" depart="49.00">
        <route edges="A3B3 B3B4 B4B5 B5B6 B6B7 B7B8 B8B9 B9B10 B10B11 B11B12 B12C12 C12C11"/>
    </vehicle>
    <vehicle id="veh_2316" type="car" depart="50.60">
        <route edges="O13N13 N13N12 N12N11 N11N10 N10N9 N9N8 N8N7 N7N8"/>
    </vehicle>
    <vehicle id="veh_1297" type="car" depart="52.10">
        <route edges="O5O4 O4N4 N4M4 M4L4 L4K4 K4J4 J4I4 I4H4 H4G4 G4F4 F4E4 E4D4 D4E4"/>
    </vehicle>
    <vehicle id="veh_1498" type="car" depart="53.80">
        <route edges="I14I13 I13I12 I12I11 I11I10 I10J10 J10K10 K10L10 L10M10 M10N10 N10N11"/>
    </vehicle>
    <vehicle id="veh_1678" type="car" depart="53.80">
        <route edges="O13N13 N13M13 M13L13 L13K13 K13J13 J13I13 I13H13 H13G13 G13F13 F13E13 E13D13 D13C13 C13B13 B13A13 A13A12 A12B12"/>
    </vehicle>
    <vehicle id="veh_914" type="car" depart="54.80">
        <route edges="L0L1 L1L2 L2L3 L3L4 L4L5 L5L6 L6L7 L7L8 L8L9 L9L10 L10K10 K10J10 J10I10"/>
    </vehicle>
    <vehicle id="veh_2485" type="car" depart="55.30">
        <route edges="A6A7 A7B7 B7C7 C7C6 C6C5 C5C4 C4C3 C3D3 D3E3 E3F3 F3G3"/>
    </vehicle>
    <vehicle id="veh_1500" type="car" depart="57.10">
        <route edges="L14K14 K14K13 K13K12 K12K11 K11K10 K10K9 K9K8 K8K9"/>
    </vehicle>
    <vehicle id="veh_1003" type="car" depart="57.90">
        <route edges="A11A12 A12A13 A13B13 B13C13 C13D13 D13E13 E13F13 F13G13 G13G12"/>
    </vehicle>
    <vehicle id="veh_1045" type="car" depart="58.10">
        <route edges="J0I0 I0I1 I1I2 I2I3 I3I4 I4I5 I5I6 I6I7 I7I8 I8I9 I9I10 I10I11 I11J11 J11K11 K11K12 K12J12"/>
    </vehicle>
    <vehicle id="veh_1238" type="car" depart="59.50">
        <route edges="A6A7 A7B7 B7C7 C7D7 D7E7 E7F7 F7G7 G7H7 H7I7 I7J7 J7K7 K7L7 L7M7 M7N7 N7O7 O7O6 O6O5 O5N5"/>
    </vehicle>
    <vehicle id="veh_1811" type="car" depart="60.50">
        <route edges="O0N0 N0M0 M0L0 L0K0 K0J0 J0I0 I0H0 H0G0 G0G1 G1G2 G2G3 G3G4 G4G5 G5G6 G6G7 G7G8 G8G9 G9G10 G10F10 F10F9"/>
    </vehicle>
    <vehicle id="veh_875" type="car" depart="62.50">
        <route edges="J0K0 K0K1 K1J1 J1I1 I1I2 I2I3 I3I4 I4I5 I5I6 I6I7 I7I8 I8I9 I9I10 I10I11 I11I12 I12I13 I13J13"/>
    </vehicle>
    <vehicle id="veh_2055" type="car" depart="67.40">
        <route edges="J0I0 I0I1 I1I2 I2I3 I3I4 I4I5 I5I6 I6I7 I7I8 I8I9 I9I8"/>
    </vehicle>
    <vehicle id="veh_759" type="car" depart="70.80">
        <route edges="O7O8 O8N8 N8N7 N7N6 N6N5 N5N4 N4N3"/>
    </vehicle>
    <vehicle id="veh_761" type="car" depart="71.60">
        <route edges="A4A5 A5A6 A6A7 A7A8 A8A9 A9A10 A10A11 A11A12 A12A13 A13B13"/>
    </vehicle>
    <vehicle id="veh_2451" type="car" depart="72.60">
        <route edges="D14E14 E14F14 F14F13 F13F12 F12F11 F11F10 F10F9 F9F8 F8F7 F7F6 F6F5 F5F4 F4F3 F3F2 F2G2"/>
    </vehicle>
    <vehicle id="veh_1230" type="car" depart="73.60">
        <route edges="N0O0 O0O1 O1N1 N1M1 M1L1 L1K1 K1K2 K2K3 K3L3"/>
    </vehicle>
    <vehicle id="veh_176" type="car" depart="74.90">
        <route edges="O8O7 O7O6 O6N6 N6M6 M6L6 L6K6 K6J6 J6I6 I6H6 H6G6 G6F6"/>
    </vehicle>
    <vehicle id="veh_1182" type="car" depart="78.40">
        <route edges="B0C0 C0D0 D0E0 E0F0 F0G0 G0H0 H0I0 I0J0 J0K0 K0L0 L0M0 M0N0 N0N1 N1N2 N2M2"/>
    </vehicle>
    <vehicle id="veh_1006" type="car" depart="81.20">
        <route edges="A9A8 A8B8 B8C8 C8D8 D8D9 D9C9"/>
    </vehicle>
    <vehicle id="veh_447" type="car" depart="84.40">
        <route edges="F14E14 E14E13 E13F13 F13G13 G13H13 H13I13 I13J13 J13K13 K13L13 L13M13 M13M12 M12M11 M11M10 M10M9 M9M8 M8M7 M7M6 M6M5 M5M4"/>
    </vehicle>
    <vehicle id="veh_747" type="car" depart="84.60">
        <route edges="K14J14 J14J13 J13J12 J12J11 J11J10 J10J9 J9J8 J8J7 J7J6 J6J5 J5J4 J4J3 J3I3"/>
    </vehicle>
    <vehicle id="veh_1914" type="car" depart="84.60">
        <route edges="O1O2 O2O3 O3O4 O4O5 O5O6 O6O7 O7O8 O8O9 O9O10 O10O11 O11O12 O12N12 N12M12 M12M11"/>
    </vehicle>
    <vehicle id="veh_322" type="car" depart="85.50">
        <route edges="O9O8 O8N8 N8M8 M8L8 L8K8 K8J8 J8I8 I8H8 H8G8 G8F8 F8E8 E8D8 D8D9 D9D10 D10D11 D11D12 D12D13 D13C13"/>
    </vehicle>
    <vehicle id="veh_558" type="car" depart="86.00">
        <route edges="A10A9 A9A8 A8A7 A7A6 A6B6 B6C6 C6D6 D6E6 E6F6 F6G6"/>
    </vehicle>
    <vehicle id="veh_1752" type="car" depart="86.60">
        <route edges="A1A2 A2A3 A3A4 A4B4 B4C4 C4D4 D4E4 E4E5 E5E6 E6E7"/>
    </vehicle>
    <vehicle id="veh_1869" type="car" depart="86.60">
        <route edges="O12O13 O13N13 N13M13 M13L13 L13K13 K13J13 J13I13 I13H13 H13G13 G13F13 F13F12 F12G12"/>
    </vehicle>
    <vehicle id="veh_2076" type="car" depart="90.00">
        <route edges="O11N11 N11M11 M11L11 L11K11 K11J11 J11I11 I11H11 H11G11 G11F11 F11E11 E11D11 D11C11 C11C10 C10C9"/>
    </vehicle>
    <vehicle id="veh_2145" type="car" depart="90.60">
        <route edges="C0C1 C1C2 C2C3 C3C4 C4C5 C5C6 C6C7 C7C8 C8C9 C9D9 D9D10 D10C10"/>
    </vehicle>
    <vehicle id="veh_1481" type="car" depart="91.80">
        <route edges="A9A8 A8A7 A7A6 A6B6 B6C6 C6D6 D6E6 E6F6"/>
    </vehicle>
    <vehicle id="veh_2127" type="car" depart="93.90">
        <route edges="I14J14 J14J13 J13J12 J12J11 J11J10 J10J9 J9I9 I9H9 H9G9 G9F9 F9E9 E9D9 D9C9 C9B9 B9B8"/>
    </vehicle>
    <vehicle id="veh_1355" type="car" depart="94.40">
        <route edges="A9A10 A10B10 B10B9 B9B8 B8B7 B7B6 B6B5 B5B6"/>
    </vehicle>
    <vehicle id="veh_2291" type="car" depart="95.00">
        <route edges="I0J0 J0J1 J1J2 J2J3 J3J4 J4J5 J5J6 J6J7 J7J8 J8I8 I8H8 H8G8 G8F8 F8E8"/>
    </vehicle>
    <vehicle id="veh_420" type="car" depart="95.10">
        <route edges="F0G0 G0G1 G1F1 F1E1 E1D1 D1C1 C1B1 B1B2 B2B3 B3B4 B4B5 B5B6 B6B7 B7B8 B8B9 B9B10 B10B11"/>
    </vehicle>
    <vehicle id="veh_1823" type="car" depart="95.70">
        <route edges="N0N1 N1M1 M1L1 L1K1 K1J1 J1I1 I1H1 H1G1 G1F1 F1E1 E1E2 E2E3 E3E4 E4E5 E5E6 E6E7 E7E8 E8E9 E9E10 E10E11 E11E12 E12E13 E13F13"/>
    </vehicle>
    <vehicle id="veh_298" type="car" depart="102.30">
        <route edges="G0G1 G1G2 G2F2 F2F3 F3F4 F4F5 F5F6 F6F7 F7F8 F8F9 F9F10 F10F11 F11G11"/>
    </vehicle>
    <vehicle id="veh_934" type="car" depart="107.50">
        <route edges="O12O13 O13N13 N13M13 M13L13 L13K13 K13J13 J13I13 I13H13 H13G13 G13G12 G12G11 G11G10 G10G9 G9G8 G8G7"/>
    </vehicle>
    <vehicle id="veh_677" type="car" depart="107.60">
        <route edges="E0E1 E1E2 E2E3 E3E4 E4E5 E5E6 E6E7 E7D7 D7D6"/>
    </vehicle>
    <vehicle id="veh_359" type="car" depart="108.20">
        <route edges="K0J0 J0K0 K0K1"/>
    </vehicle>
    <vehicle id="veh_1538" type="car" depart="108.70">
        <route edges="A13A12 A12A11 A11A10 A10A9 A9A8 A8A7 A7A6 A6A5 A5B5 B5C5 C5D5 D5E5 E5E6"/>
    </vehicle>
    <vehicle id="veh_24" type="car" depart="109.70">
        <route edges="O13O14 O14N14 N14N13 N13N12 N12N11 N11N10 N10N9 N9N8 N8N7 N7N6 N6M6"/>
    </vehicle>
    <vehicle id="veh_1186" type="car" depart="109.70">
        <route edges="L14M14 M14M13 M13M12 M12M11 M11M10 M10M9 M9M8 M8L8 L8K8 K8J8 J8I8 I8H8 H8G8 G8G9"/>
    </vehicle>
    <vehicle id="veh_942" type="car" depart="110.20">
        <route edges="E14F14 F14G14 G14H14 H14I14 I14J14 J14K14 K14L14 L14M14 M14M13 M13M12 M12M11 M11M10 M10M9 M9M8 M8N8 N8N9"/>
    </vehicle>
    <vehicle id="veh_886" type="car" depart="112.90">
        <route edges="A3A2 A2B2 B2B3 B3B4 B4B5 B5B6 B6C6 C6D6 D6E6 E6F6 F6G6 G6G5"/>
    </vehicle>
    <vehicle id="veh_297" type="car" depart="113.10">
        <route edges="O12N12 N12N11 N11N10 N10M10"/>
    </vehicle>
    <vehicle id="veh_1424" type="car" depart="118.00">
        <route edges="A5A6 A6B6 B6C6 C6D6 D6D5 D5D4 D4D3 D3E3 E3F3 F3G3"/>
    </vehicle>
    <vehicle id="veh_1158" type="car" depart="120.00">
        <route edges="A4A5 A5B5 B5C5 C5D5 D5E5 E5F5 F5G5 G5G4 G4G3 G3F3"/>
    </vehicle>
    <vehicle id="veh_1826" type="car" depart="120.00">
        <route edges="M0M1 M1M2 M2M3 M3M4 M4M5 M5L5 L5K5 K5J5 J5I5"/>
    </vehicle>
    <vehicle id="veh_2159" type="car" depart="122.00">
        <route edges="A7A8 A8A9 A9B9 B9C9 C9D9 D9E9 E9F9 F9G9 G9H9 H9I9 I9J9 J9K9 K9L9 L9M9 M9M10"/>
    </vehicle>
    <vehicle id="veh_324" type="car" depart="124.50">
        <route edges="A6A7 A7B7 B7C7 C7D7 D7E7 E7F7 F7G7 G7H7 H7I7 I7J7 J7K7 K7L7 L7L6 L6L5 L5L4 L4M4"/>
    </vehicle>
    <vehicle id="veh_1093" type="car" depart="125.00">
        <route edges="C0D0 D0D1 D1D2 D2D3 D3D4 D4D5 D5D6 D6D7 D7D8 D8E8 E8F8 F8G8 G8H8 H8I8 I8J8 J8K8 K8K7"/>
    </vehicle>
    <vehicle id="veh_664" type="car" depart="125.20">
        <route edges="O9N9 N9M9 M9L9 L9K9 K9J9 J9I9 I9H9 H9G9 G9F9 F9E9 E9D9 D9C9 C9C10 C10C11 C11C12 C12C13 C13C14 C14B14 B14B13"/>
    </vehicle>
    <vehicle id="veh_1314" type="car" depart="125.70">
        <route edges="F14G14 G14H14 H14I14 I14J14 J14K14 K14L14 L14M14 M14N14 N14N13 N13N12 N12N11 N11N10 N10N9 N9N8 N8N7 N7N6 N6N5 N5N4 N4N3 N3M3"/>
    </vehicle>
    <vehicle id="veh_1224" type="car" depart="126.70">
        <route edges="F0G0 G0G1 G1G2 G2G3 G3G4 G4G5 G5G6 G6F6 F6E6 E6D6 D6C6 C6B6"/>
    </vehicle>
    <vehicle id="veh_113" type="car" depart="127.30">
        <route edges="A9A10 A10A11 A11A12 A12B12 B12C12 C12D12 D12D13 D13D14 D14E14 E14F14 F14G14 G14G13"/>
    </vehicle>
    <vehicle id="veh_1366" type="car" depart="127.50">
        <route edges="A12A13 A13B13 B13C13 C13D13 D13E13 E13F13 F13G13 G13H13 H13I13 I13J13 J13K13 K13L13 L13M13 M13N13 N13N12 N12N11 N11N10 N10N9 N9N8 N8N7 N7N6 N6N5 N5N4 N4N3 N3N2"/>
    </vehicle>
    <vehicle id="veh_543" type="car" depart="127.80">
        <route edges="J0J1 J1J2 J2J3 J3J4 J4J5 J5J6 J6J7 J7J8 J8J9 J9J10 J10J11 J11J12 J12J13 J13J14 J14I14 I14H14 H14G14 G14F14 F14E14 E14E13"/>
    </vehicle>
    <vehicle id="veh_2293" type="car" depart="129.90">
        <route edges="N14M14 M14M13 M13M12 M12M11 M11N11"/>
    </vehicle>
    <vehicle id="veh_791" type="car" depart="131.20">
        <route edges="O7O8 O8N8 N8M8 M8L8 L8K8 K8J8 J8J7 J7J6 J6J5 J5J4 J4J3 J3J2 J2K2"/>
    </vehicle>
    <vehicle id="veh_1193" type="car" depart="132.40">
        <route edges="O10N10 N10N11 N11N12"/>
    </vehicle>
    <vehicle id="veh_379" type="car" depart="132.70">
        <route edges="O4O5 O5O6 O6O7 O7O8 O8O9 O9N9 N9M9 M9L9 L9L10 L10L11 L11L12 L12M12"/>
    </vehicle>
    <vehicle id="veh_633" type="car" depart="133.50">
        <route edges="K14K13 K13K12 K12K11 K11K10 K10K9 K9L9 L9M9 M9N9"/>
    </vehicle>
    <vehicle id="veh_1676" type="car" depart="133.70">
        <route edges="A0B0 B0B1 B1B2 B2B3 B3B4 B4B5 B5B6 B6B7 B7C7 C7D7 D7E7 E7F7 F7G7 G7H7 H7I7 I7J7 J7K7 K7L7 L7M7 M7M6"/>
    </vehicle>
    <vehicle id="veh_2434" type="car" depart="133.80">
        <route edges="A12B12 B12C12 C12D12 D12D11 D11D10 D10E10 E10E11"/>
    </vehicle>
    <vehicle id="veh_67" type="car" depart="134.50">
        <route edges="F14F13 F13G13 G13H13 H13I13 I13J13 J13K13 K13L13 L13M13 M13N13 N13N12 N12N11 N11N10 N10M10"/>
    </vehicle>
    <vehicle id="veh_1690" type="car" depart="135.30">
        <route edges="J0J1 J1J2 J2J3 J3J4 J4J5 J5J6 J6J7 J7J8 J8K8 K8K7"/>
    </vehicle>
    <vehicle id="veh_1974" type="car" depart="135.50">
        <route edges="A4A5 A5A6 A6A7 A7A8 A8A9 A9A10 A10B10 B10C10 C10D10 D10E10 E10F10 F10G10 G10H10 H10I10 I10I11"/>
    </vehicle>
    <vehicle id="veh_1817" type="car" depart="136.80">
        <route edges="A11B11 B11C11 C11D11 D11D10 D10D9 D9D8 D8D7 D7D6 D6D5 D5D4 D4D3 D3C3"/>
    </vehicle>
    <vehicle id="veh_1326" type="car" depart="137.20">
        <route edges="O13O12 O12O11 O11O10 O10N10 N10M10 M10L10 L10K10 K10J10 J10I10 I10I11"/>
    </vehicle>
    <vehicle id="veh_126" type="car" depart="137.50">
        <route edges="J14J13 J13J12 J12J11 J11I11 I11H11 H11G11 G11F11 F11F10 F10F9 F9F8 F8F7 F7G7"/>
    </vehicle>
    <vehicle id="veh_2071" type="car" depart="137.90">
        <route edges="E0F0 F0G0 G0H0 H0I0 I0J0 J0K0 K0L0 L0M0 M0M1 M1M2 M2M3 M3M4 M4M5 M5M6 M6M7 M7M8 M8N8 N8O8 O8O9 O9N9"/>
    </vehicle>
    <vehicle id="veh_358" type="car" depart="140.60">
        <route edges="E14E13 E13F13 F13G13 G13H13 H13I13 I13J13 J13K13 K13L13 L13L12 L12L11 L11L10 L10L9 L9L8 L8L7 L7K7"/>
    </vehicle>
    <vehicle id="veh_335" type="car" depart="141.50">
        <route edges="J0K0 K0K1 K1J1 J1I1 I1H1 H1G1 G1F1 F1E1 E1D1 D1C1 C1C2 C2C3"/>
    </vehicle>
    <vehicle id="veh_1435" type="car" depart="143.10">
        <route edges="A9A8 A8B8 B8C8 C8D8 D8E8 E8F8 F8G8 G8H8 H8I8 I8I7 I7I6"/>
    </vehicle>
    <vehicle id="veh_2108" type="car" depart="143.50">
        <route edges="O9O10 O10N10 N10N9 N9N8 N8N7 N7N6 N6N5 N5N4 N4N3 N3N2 N2N1 N1M1 M1L1 L1K1 K1K2"/>
    </vehicle>
    <vehicle id="veh_1124" type="car" depart="144.20">
        <route edges="M0M1 M1M2 M2M3 M3M4 M4M5 M5M6 M6M7 M7M8 M8M9 M9M10 M10M11 M11M12 M12M13 M13L13 L13K13 K13J13 J13I13 I13H13 H13G13 G13F13 F13E13 E13E12"/>
    </vehicle>
    <vehicle id="veh_2067" type="car" depart="148.30">
        <route edges="H0I0 I0I1 I1I2 I2I3 I3I4 I4I5 I5I6 I6I7 I7I8 I8I9 I9J9 J9K9 K9L9 L9M9 M9N9 N9N8"/>
    </vehicle>
    <vehicle id="veh_884" type="car" depart="149.60">
        <route edges="O2O3 O3O4 O4O5 O5O6 O6O7 O7O8 O8O9 O9O10 O10N10 N10M10 M10L10 L10K10 K10J10 J10I10 I10H10"/>
    </vehicle>
    <vehicle id="veh_578" type="car" depart="151.80">
        <route edges="O2N2 N2M2 M2L2 L2K2 K2J2 J2I2 I2H2 H2G2 G2F2 F2F1"/>
    </vehicle>
    <vehicle id="veh_1731" type="car" depart="153.90">
        <route edges="O8O7 O7O6 O6O5 O5O4 O4O3 O3N3 N3M3 M3L3 L3K3 K3J3 J3I3 I3H3 H3G3 G3F3 F3E3 E3D3 D3D2"/>
    </vehicle>
    <vehicle id="veh_1276" type="car" depart="157.80">
        <route edges="A2B2 B2C2 C2C3 C3D3 D3E3 E3F3 F3G3 G3H3 H3I3 I3J3"/>
    </vehicle>
    <vehicle id="veh_1728" type="car" depart="158.10">
        <route edges="F14G14 G14G13 G13G12 G12G11 G11G10 G10G9 G9G8 G8G7 G7G6 G6G5 G5G4 G4G3 G3G2 G2G1 G1F1 F1F2"/>
    </vehicle>
    <vehicle id="veh_294" type="car" depart="163.30">
        <route edges="A7A8 A8B8 B8C8 C8D8 D8E8 E8F8 F8G8 G8G7 G7G6"/>
    </vehicle>
    <vehicle id="veh_1681" type="car" depart="163.70">
        <route edges="A6A5 A5B5 B5C5 C5D5 D5E5 E5F5 F5G5 G5H5 H5I5 I5J5 J5K5 K5K4 K4K3 K3J3"/>
    </vehicle>
    <vehicle id="veh_1786" type="car" depart="163.80">
        <route edges="O10O11 O11O10 O10O9 O9O8 O8O7 O7O6 O6O5 O5O4 O4O3 O3O2 O2N2 N2N3"/>
    </vehicle>
    <vehicle id="veh_1313" type="car" depart="166.50">
        <route edges="O4O5 O5N5 N5M5 M5L5 L5K5 K5J5 J5I5 I5H5 H5H6 H6I6"/>
    </vehicle>
    <vehicle id="veh_669" type="car" depart="166.80">
        <route edges="O2N2 N2M2 M2L2 L2K2 K2J2 J2I2 I2H2 H2G2 G2F2 F2E2 E2F2"/>
    </vehicle>
    <vehicle id="veh_1645" type="car" depart="166.90">
        <route edges="G14F14 F14G14 G14H14 H14H13 H13G13"/>
    </vehicle>
    <vehicle id="veh_571" type="car" depart="167.70">
        <route edges="A14A13 A13B13 B13C13 C13D13 D13E13 E13F13 F13G13 G13H13 H13I13 I13J13 J13J12 J12J11 J11J10 J10J9 J9I9"/>
    </vehicle>
    <vehicle id="veh_1751" type="car" depart="167.70">
        <route edges="A11A10 A10B10 B10B11 B11C11 C11D11 D11E11"/>
    </vehicle>
    <vehicle id="veh_1427" type="car" depart="171.20">
        <route edges="M14N14 N14N13 N13N12 N12N11 N11N10 N10N9 N9N8 N8N7 N7N6 N6M6 M6L6 L6K6 K6J6 J6I6 I6H6"/>
    </vehicle>
    <vehicle id="veh_964" type="car" depart="171.70">
        <route edges="I0J0 J0J1 J1I1 I1H1 H1G1"/>
    </vehicle>
    <vehicle id="veh_117" type="car" depart="173.20">
        <route edges="K0K1 K1J1 J1I1 I1H1 H1H2 H2H3 H3H4 H4H5"/>
    </vehicle>
    <vehicle id="veh_1755" type="car" depart="174.40">
        <route edges="G14F14 F14F13 F13F12 F12E12 E12D12 D12C12 C12B12 B12A12 A12A11 A11B11"/>
    </vehicle>
    <vehicle id="veh_843" type="car" depart="174.50">
        <route edges="H0G0 G0G1 G1G2 G2G3 G3G4 G4G5 G5G6 G6G7 G7H7 H7I7 I7I6"/>
    </vehicle>
    <vehicle id="veh_498" type="car" depart="174.90">
        <route edges="K0K1 K1K2 K2J2 J2J3 J3J4 J4J5 J5K5"/>
    </vehicle>
    <vehicle id="veh_348" type="car" depart="181.00">
        <route edges="A11A12 A12B12 B12C12 C12D12 D12E12 E12F12 F12G12 G12H12 H12I12 I12I11 I11I10 I10I9 I9H9"/>
    </vehicle>
    <vehicle id="veh_1521" type="car" depart="181.70">
        <route edges="O2N2 N2N3 N3O3 O3O4 O4O5 O5N5"/>
    </vehicle>
    <vehicle id="veh_2273" type="car" depart="182.10">
        <route edges="K0K1 K1K2 K2K3 K3K4 K4K5 K5K6 K6K7 K7K8 K8L8 L8M8 M8N8 N8N9 N9M9"/>
    </vehicle>
    <vehicle id="veh_1870" type="car" depart="184.50">
        <route edges="A3B3 B3B4 B4A4 A4A5 A5A6 A6A7 A7A8 A8A9 A9A10 A10A11 A11A12 A12B12"/>
    </vehicle>
    <vehicle id="veh_1819" type="car" depart="188.50">
        <route edges="F14G14 G14G13 G13G12 G12G11 G11G10 G10G9 G9G8 G8G7 G7G6 G6G5 G5G4 G4G3 G3G2 G2F2 F2E2 E2D2"/>
    </vehicle>
    <vehicle id="veh_1571" type="car" depart="192.20">
        <route edges="E14E13 E13E12 E12E11 E11E10 E10E9 E9D9 D9D10"/>
    </vehicle>
    <vehicle id="veh_1130" type="car" depart="192.70">
        <route edges="A7A8 A8B8 B8C8 C8D8 D8E8 E8F8 F8G8 G8H8 H8I8 I8J8 J8K8 K8L8 L8M8 M8N8 N8O8 O8O7 O7O6 O6O5 O5O4 O4O3 O3N3"/>
    </vehicle>
    <vehicle id="veh_2162" type="car" depart="193.40">
        <route edges="E14F14 F14G14 G14H14 H14I14 I14I13 I13I12 I12I11 I11I10 I10I9 I9I8 I8I7 I7I6 I6I5 I5I4 I4I3 I3I2 I2I1 I1J1"/>
    </vehicle>
    <vehicle id="veh_2075" type="car" depart="194.20">
        <route edges="L0M0 M0M1 M1M2 M2M3 M3M4 M4M5 M5M6 M6N6 N6N5"/>
    </vehicle>
    <vehicle id="veh_2185" type="car" depart="194.40">
        <route edges="A5B5 B5B6 B6B7 B7C7"/>
    </vehicle>
    <vehicle id="veh_1871" type="car" depart="196.30">
        <route edges="N0M0 M0L0 L0K0 K0K1 K1K2 K2K3 K3K4 K4J4 J4J3"/>
    </vehicle>
    <vehicle id="veh_586" type="car" depart="196.60">
        <route edges="F0F1 F1F2 F2F3 F3G3 G3G4 G4G5 G5F5"/>
    </vehicle>
    <vehicle id="veh_1114" type="car" depart="203.60">
        <route edges="I14H14 H14G14 G14F14 F14E14 E14E13 E13E12 E12E11 E11E10 E10E9 E9E8 E8E7 E7E6 E6E5"/>
    </vehicle>
    <vehicle id="veh_1714" type="car" depart="206.30">
        <route edges="A6A5 A5B5 B5C5 C5D5 D5E5 E5E6 E6E7 E7E8 E8E9"/>
    </vehicle>
    <vehicle id="veh_1629" type="car" depart="207.40">
        <route edges="O9N9 N9M9 M9L9 L9K9 K9J9 J9I9 I9H9 H9G9 G9F9 F9E9 E9D9 D9D8 D8D7 D7D6"/>
    </vehicle>
    <vehicle id="veh_1697" type="car" depart="209.60">
        <route edges="N14N13 N13M13"/>
    </vehicle>
    <vehicle id="veh_540" type="car" depart="212.20">
        <route edges="O13O14 O14N14 N14M14 M14L14 L14K14 K14J14 J14I14 I14H14 H14H13 H13H12 H12H11 H11H10 H10H9 H9H8 H8H7 H7H6 H6I6"/>
    </vehicle>
    <vehicle id="veh_771" type="car" depart="216.70">
        <route edges="A8A7 A7A6 A6A5 A5A4 A4A3 A3A2 A2A1 A1B1 B1C1 C1C2"/>
    </vehicle>
    <vehicle id="veh_216" type="car" depart="218.30">
        <route edges="H14I14 I14J14 J14K14 K14L14 L14L13 L13L12 L12L11 L11L10 L10L9 L9L8 L8L7 L7L6 L6L5 L5L4 L4L3 L3L2 L2M2"/>
    </vehicle>
    <vehicle id="veh_56" type="car" depart="218.80">
        <route edges="N14N13 N13N12 N12N11 N11N10 N10N9 N9N8 N8N7 N7N6 N6N5 N5N4 N4N3 N3M3 M3L3 L3K3 K3J3 J3I3 I3H3"/>
    </vehicle>
    <vehicle id="veh_2" type="car" depart="220.60">
        <route edges="A2A1 A1B1 B1C1 C1D1 D1E1 E1F1 F1G1 G1H1 H1I1 I1J1 J1K1 K1L1 L1L2 L2L3 L3L4 L4L5"/>
    </vehicle>
    <vehicle id="veh_83" type="car" depart="221.00">
        <route edges="I14I13 I13I12 I12I11 I11I10"/>
    </vehicle>
    <vehicle id="veh_2024" type="car" depart="221.10">
        <route edges="F0E0 E0E1 E1F1 F1G1 G1H1 H1I1 I1J1 J1K1 K1L1 L1M1 M1M2"/>
    </vehicle>
    <vehicle id="veh_1507" type="car" depart="222.10">
        <route edges="E0F0 F0F1 F1F2 F2F3 F3F4 F4F5 F5E5 E5D5 D5C5 C5B5 B5B4"/>
    </vehicle>
    <vehicle id="veh_1220" type="car" depart="223.60">
        <route edges="G0G1 G1G2 G2G3 G3G4 G4G5 G5F5 F5E5 E5E4"/>
    </vehicle>
    <vehicle id="veh_2156" type="car" depart="223.70">
        <route edges="M14L14 L14L13 L13L12 L12L11 L11L10 L10L9 L9L8 L8L7 L7L6 L6L5 L5L4 L4L3 L3K3 K3J3 J3I3 I3H3 H3G3 G3F3 F3F4"/>
    </vehicle>
    <vehicle id="veh_2113" type="car" depart="224.20">
        <route edges="I14J14 J14J13 J13J12 J12J11 J11J10 J10J9 J9J8 J8J7 J7J6 J6J5 J5J4 J4J3 J3J2 J2J1 J1I1 I1I2"/>
    </vehicle>
    <vehicle id="veh_2490" type="car" depart="224.60">
        <route edges="I0H0 H0H1 H1H2 H2H1"/>
    </vehicle>
    <vehicle id="veh_1979" type="car" depart="225.10">
        <route edges="J0K0 K0K1 K1J1 J1I1 I1H1 H1G1 G1F1 F1F2 F2F3 F3F4"/>
    </vehicle>
    <vehicle id="veh_2025" type="car" depart="225.70">
        <route edges="H14H13 H13H12 H12H11 H11H10 H10H9 H9H8 H8H7 H7H6 H6H5 H5I5 I5J5 J5K5 K5L5 L5M5"/>
    </vehicle>
    <vehicle id="veh_830" type="car" depart="225.90">
        <route edges="O7O6 O6O5 O5O4 O4O3 O3N3 N3N4"/>
    </vehicle>
    <vehicle id="veh_2292" type="car" depart="227.60">
        <route edges="A4B4 B4C4 C4D4 D4E4 E4F4 F4G4 G4H4 H4I4 I4J4 J4K4 K4L4 L4L5 L5L6 L6L7 L7L8 L8L9 L9L10 L10K10"/>
    </vehicle>
    <vehicle id="veh_613" type="car" depart="229.10">
        <route edges="O12N12 N12M12 M12M11 M11M10 M10M9"/>
    </vehicle>
    <vehicle id="veh_493" type="car" depart="230.70">
        <route edges="O1O2 O2O3 O3O4 O4N4 N4M4 M4L4 L4K4 K4J4 J4I4 I4H4"/>
    </vehicle>
    <vehicle id="veh_706" type="car" depart="232.30">
        <route edges="F14F13 F13F12 F12F11 F11F10 F10F9 F9F8 F8G8 G8H8 H8I8"/>
    </vehicle>
    <vehicle id="veh_1800" type="car" depart="233.40">
        <route edges="L0M0 M0M1 M1M2 M2M3 M3M4 M4M5 M5M6 M6M7 M7M8 M8M9 M9M10 M10M11 M11M12 M12M13 M13M14 M14L14 L14K14 K14K13"/>
    </vehicle>
    <vehicle id="veh_1742" type="car" depart="234.00">
        <route edges="O0O1 O1O2 O2O3 O3O4 O4O5 O5O6 O6N6 N6M6 M6L6 L6K6 K6J6 J6I6 I6H6 H6G6 G6F6 F6E6 E6D6"/>
    </vehicle>
    <vehicle id="veh_754" type="car" depart="240.10">
        <route edges="O9O10 O10O11 O11O12 O12N12 N12M12 M12L12 L12K12 K12J12 J12I12 I12H12"/>
    </vehicle>
    <vehicle id="veh_2230" type="car" depart="241.40">
        <route edges="O11O12 O12N12 N12N11 N11N10 N10N9 N9N8 N8N7 N7N6 N6N5"/>
    </vehicle>
    <vehicle id="veh_2468" type="car" depart="242.70">
        <route edges="O5N5 N5M5 M5L5 L5K5 K5K4 K4K3 K3K2 K2K1 K1J1 J1I1 I1H1 H1G1"/>
    </vehicle>
    <vehicle id="veh_346" type="car" depart="245.20">
        <route edges="K14J14 J14J13 J13J12 J12J11 J11J10 J10J9 J9J8 J8J7 J7J6 J6J5 J5I5 I5H5"/>
    </vehicle>
    <vehicle id="veh_1004" type="car" depart="248.50">
        <route edges="K14K13 K13K12 K12K11 K11K10 K10K9 K9K8 K8K7 K7J7 J7I7 I7H7 H7G7 G7F7 F7E7 E7E8"/>
    </vehicle>
    <vehicle id="veh_203" type="car" depart="249.30">
        <route edges="A9A10 A10A11 A11A12 A12B12 B12C12 C12D12 D12D11"/>
    </vehicle>
    <vehicle id="veh_2283" type="car" depart="252.00">
        <route edges="A2A3 A3A4 A4B4 B4C4 C4D4 D4E4 E4F4 F4F5 F5F6 F6F7 F7F8"/>
    </vehicle>
    <vehicle id="veh_1648" type="car" depart="252.30">
        <route edges="N14N13 N13N12 N12N11 N11M11 M11L11 L11K11 K11J11 J11I11 I11H11 H11G11 G11F11 F11E11"/>
    </vehicle>
    <vehicle id="veh_679" type="car" depart="253.70">
        <route edges="K0K1 K1K2 K2K3 K3K4 K4K5 K5K6 K6J6 J6I6 I6I7 I7I8 I8I9 I9I10 I10I11"/>
    </vehicle>
    <vehicle id="veh_948" type="car" depart="255.60">
        <route edges="O12O13 O13N13 N13M13 M13L13 L13K13 K13K12 K12K11 K11K10 K10K9 K9K8 K8K7"/>
    </vehicle>
    <vehicle id="veh_908" type="car" depart="255.70">
        <route edges="O6O5 O5N5 N5M5 M5L5 L5K5 K5J5 J5I5 I5H5 H5G5 G5F5 F5E5 E5E6 E6E7 E7E8 E8F8"/>
    </vehicle>
    <vehicle id="veh_798" type="car" depart="256.70">
        <route edges="O2N2 N2M2 M2L2 L2L3 L3L4 L4L5 L5L6 L6L7 L7L8 L8L9 L9K9 K9K8"/>
    </vehicle>
    <vehicle id="veh_1069" type="car" depart="257.70">
        <route edges="O11O12 O12N12 N12M12 M12L12 L12K12 K12J12 J12I12 I12H12 H12G12 G12F12 F12E12 E12D12 D12C12 C12B12 B12A12 A12A11 A11B11"/>
    </vehicle>
    <vehicle id="veh_1570" type="car" depart="259.80">
        <route edges="B0A0 A0A1 A1A2 A2A3 A3A4 A4A5 A5A6 A6A7 A7A8 A8B8 B8C8 C8D8 D8E8 E8F8 F8G8 G8H8 H8H7"/>
    </vehicle>
    <vehicle id="veh_607" type="car" depart="261.80">
        <route edges="B14B13 B13C13 C13C14 C14D14 D14E14 E14F14 F14G14 G14H14 H14H13"/>
    </vehicle>
    <vehicle id="veh_2275" type="car" depart="261.80">
        <route edges="A9A10 A10B10 B10C10 C10D10 D10E10 E10F10 F10G10 G10H10 H10I10 I10J10 J10J9 J9J8 J8J7 J7J6 J6J5 J5J4 J4J3 J3J2 J2J1 J1K1"/>
    </vehicle>
    <vehicle id="veh_1981" type="car" depart="262.90">