<trips>
    <vType id="car" accel="2.6" decel="4.5" sigma="0.5" length="5" minGap="2.5" maxSpeed="13.89" color="0,255,0"/>
    <trip id="veh_1801" type="car" depart="6.1" from="O13N13" to="F9F10"/>
    <trip id="veh_1712" type="car" depart="7.3" from="M0L0" to="C13C12"/>
    <trip id="veh_1407" type="car" depart="8.2" from="O14O13" to="E13F13"/>
    <trip id="veh_146" type="car" depart="9.3" from="C0C1" to="N4N5"/>
    <trip id="veh_2124" type="car" depart="10.9" from="J0J1" to="M9M8"/>
    <trip id="veh_976" type="car" depart="12.5" from="C0B0" to="C1D1"/>
    <trip id="veh_98" type="car" depart="13.8" from="J14K14" to="E13E12"/>
    <trip id="veh_360" type="car" depart="14.4" from="O0O1" to="N6N5"/>
    <trip id="veh_2069" type="car" depart="14.5" from="O14N14" to="L7L8"/>
    <trip id="veh_2161" type="car" depart="16.4" from="A0A1" to="G2G3"/>
    <trip id="veh_444" type="car" depart="16.8" from="I14H14" to="D5D4"/>
    <trip id="veh_463" type="car" depart="23.0" from="O12O11" to="B11B10"/>
    <trip id="veh_196" type="car" depart="23.9" from="B14A14" to="C10D10"/>
    <trip id="veh_1454" type="car" depart="27.4" from="O1O0" to="C2C3"/>
    <trip id="veh_339" type="car" depart="27.7" from="F0E0" to="M12N12"/>
    <trip id="veh_1473" type="car" depart="27.8" from="O3O2" to="D1C1"/>
    <trip id="veh_1748" type="car" depart="29.4" from="L0L1" to="K0K1"/>
    <trip id="veh_173" type="car" depart="32.0" from="A11B11" to="D2E2"/>
    <trip id="veh_1219" type="car" depart="32.5" from="A0B0" to="O11N11"/>
    <trip id="veh_477" type="car" depart="35.0" from="O7O6" to="M1L1"/>
    <trip id="veh_1405" type="car" depart="37.5" from="D14D13" to="B9B10"/>
    <trip id="veh_838" type="car" depart="37.8" from="I0J0" to="M8M7"/>
    <trip id="veh_2060" type="car" depart="38.5" from="O6N6" to="N2N3"/>
    <trip id="veh_1995" type="car" depart="39.3" from="O7O8" to="E7D7"/>
    <trip id="veh_414" type="car" depart="40.7" from="O13O12" to="N1M1"/>
    <trip id="veh_220" type="car" depart="42.8" from="O14N14" to="N13M13"/>
    <trip id="veh_1176" type="car" depart="43.5" from="O10O9" to="K2K3"/>
    <trip id="veh_2477" type="car" depart="49.0" from="A3B3" to="C12C11"/>
    <trip id="veh_2316" type="car" depart="50.6" from="O13N13" to="N7N8"/>
    <trip id="veh_1297" type="car" depart="52.1" from="O5O4" to="D4E4"/>
    <trip id="veh_1498" type="car" depart="53.8" from="I14I13" to="N10N11"/>
    <trip id="veh_1678" type="car" depart="53.8" from="O13N13" to="A12B12"/>
    <trip id="veh_914" type="car" depart="54.8" from="L0L1" to="J10I10"/>
    <trip id="veh_2485" type="car" depart="55.3" from="A6A7" to="F3G3"/>
    <trip id="veh_1500" type="car" depart="57.1" from="L14K14" to="K8K9"/>
    <trip id="veh_1003" type="car" depart="57.9" from="A11A12" to="G13G12"/>
    <trip id="veh_1045" type="car" depart="58.1" from="J0I0" to="K12J12"/>
    <trip id="veh_1238" type="car" depart="59.5" from="A6A7" to="O5N5"/>
    <trip id="veh_1811" type="car" depart="60.5" from="O0N0" to="F10F9"/>
    <trip id="veh_875" type="car" depart="62.5" from="J0K0" to="I13J13"/>
    <trip id="veh_2055" type="car" depart="67.4" from="J0I0" to="I9I8"/>
    <trip id="veh_759" type="car" depart="70.8" from="O7O8" to="N4N3"/>
    <trip id="veh_761" type="car" depart="71.6" from="A4A5" to="A13B13"/>
    <trip id="veh_2451" type="car" depart="72.6" from="D14E14" to="F2G2"/>
    <trip id="veh_1230" type="car" depart="73.6" from="N0O0" to="K3L3"/>
    <trip id="veh_176" type="car" depart="74.9" from="O8O7" to="G6F6"/>
    <trip id="veh_1182" type="car" depart="78.4" from="B0C0" to="N2M2"/>
    <trip id="veh_1006" type="car" depart="81.2" from="A9A8" to="D9C9"/>
    <trip id="veh_447" type="car" depart="84.4" from="F14E14" to="M5M4"/>
    <trip id="veh_747" type="car" depart="84.6" from="K14J14" to="J3I3"/>
    <trip id="veh_1914" type="car" depart="84.6" from="O1O2" to="M12M11"/>
    <trip id="veh_322" type="car" depart="85.5" from="O9O8" to="D13C13"/>
    <trip id="veh_558" type="car" depart="86.0" from="A10A9" to="F6G6"/>
    <trip id="veh_1752" type="car" depart="86.6" from="A1A2" to="E6E7"/>
    <trip id="veh_1869" type="car" depart="86.6" from="O12O13" to="F12G12"/>
    <trip id="veh_2076" type="car" depart="90.0" from="O11N11" to="C10C9"/>
    <trip id="veh_2145" type="car" depart="90.6" from="C0C1" to="D10C10"/>
    <trip id="veh_1481" type="car" depart="91.8" from="A9A8" to="E6F6"/>
    <trip id="veh_2127" type="car" depart="93.9" from="I14J14" to="B9B8"/>
    <trip id="veh_1355" type="car" depart="94.4" from="A9A10" to="B5B6"/>
    <trip id="veh_2291" type="car" depart="95.0" from="I0J0" to="F8E8"/>
    <trip id="veh_420" type="car" depart="95.1" from="F0G0" to="B10B11"/>
    <trip id="veh_1823" type="car" depart="95.7" from="N0N1" to="E13F13"/>
    <trip id="veh_298" type="car" depart="102.3" from="G0G1" to="F11G11"/>
    <trip id="veh_934" type="car" depart="107.5" from="O12O13" to="G8G7"/>
    <trip id="veh_677" type="car" depart="107.6" from="E0E1" to="D7D6"/>
    <trip id="veh_359" type="car" depart="108.2" from="K0J0" to="K0K1"/>
    <trip id="veh_1538" type="car" depart="108.7" from="A13A12" to="E5E6"/>
    <trip id="veh_24" type="car" depart="109.7" from="O13O14" to="N6M6"/>
    <trip id="veh_1186" type="car" depart="109.7" from="L14M14" to="G8G9"/>
    <trip id="veh_942" type="car" depart="110.2" from="E14F14" to="N8N9"/>
    <trip id="veh_886" type="car" depart="112.9" from="A3A2" to="G6G5"/>
    <trip id="veh_297" type="car" depart="113.1" from="O12N12" to="N10M10"/>
    <trip id="veh_1424" type="car" depart="118.0" from="A5A6" to="F3G3"/>
    <trip id="veh_1158" type="car" depart="120.0" from="A4A5" to="G3F3"/>
    <trip id="veh_1826" type="car" depart="120.0" from="M0M1" to="J5I5"/>
    <trip id="veh_2159" type="car" depart="122.0" from="A7A8" to="M9M10"/>
    <trip id="veh_324" type="car" depart="124.5" from="A6A7" to="L4M4"/>
    <trip id="veh_1093" type="car" depart="125.0" from="C0D0" to="K8K7"/>
    <trip id="veh_664" type="car" depart="125.2" from="O9N9" to="B14B13"/>
    <trip id="veh_1314" type="car" depart="125.7" from="F14G14" to="N3M3"/>
    <trip id="veh_1224" type="car" depart="126.7" from="F0G0" to="C6B6"/>
    <trip id="veh_113" type="car" depart="127.3" from="A9A10" to="G14G13"/>
    <trip id="veh_1366" type="car" depart="127.5" from="A12A13" to="N3N2"/>
    <trip id="veh_543" type="car" depart="127.8" from="J0J1" to="E14E13"/>
    <trip id="veh_2293" type="car" depart="129.9" from="N14M14" to="M11N11"/>
    <trip id="veh_791" type="car" depart="131.2" from="O7O8" to="J2K2"/>
    <trip id="veh_1193" type="car" depart="132.4" from="O10N10" to="N11N12"/>
    <trip id="veh_379" type="car" depart="132.7" from="O4O5" to="L12M12"/>
    <trip id="veh_633" type="car" depart="133.5" from="K14K13" to="M9N9"/>
    <trip id="veh_1676" type="car" depart="133.7" from="A0B0" to="M7M6"/>
    <trip id="veh_2434" type="car" depart="133.8" from="A12B12" to="E10E11"/>
    <trip id="veh_67" type="car" depart="134.5" from="F14F13" to="N10M10"/>
    <trip id="veh_1690" type="car" depart="135.3" from="J0J1" to="K8K7"/>
    <trip id="veh_1974" type="car" depart="135.5" from="A4A5" to="I10I11"/>
    <trip id="veh_1817" type="car" depart="136.8" from="A11B11" to="D3C3"/>
    <trip id="veh_1326" type="car" depart="137.2" from="O13O12" to="I10I11"/>
    <trip id="veh_126" type="car" depart="137.5" from="J14J13" to="F7G7"/>
    <trip id="veh_2071" type="car" depart="137.9" from="E0F0" to="O9N9"/>
    <trip id="veh_358" type="car" depart="140.6" from="E14E13" to="L7K7"/>
    <trip id="veh_335" type="car" depart="141.5" from="J0K0" to="C2C3"/>
    <trip id="veh_1435" type="car" depart="143.1" from="A9A8" to="I7I6"/>
    <trip id="veh_2108" type="car" depart="143.5" from="O9O10" to="K1K2"/>
    <trip id="veh_1124" type="car" depart="144.2" from="M0M1" to="E13E12"/>
    <trip id="veh_2067" type="car" depart="148.3" from="H0I0" to="N9N8"/>
    <trip id="veh_884" type="car" depart="149.6" from="O2O3" to="I10H10"/>
    <trip id="veh_578" type="car" depart="151.8" from="O2N2" to="F2F1"/>
    <trip id="veh_1731" type="car" depart="153.9" from="O8O7" to="D3D2"/>
    <trip id="veh_1276" type="car" depart="157.8" from="A2B2" to="I3J3"/>
    <trip id="veh_1728" type="car" depart="158.1" from="F14G14" to="F1F2"/>
    <trip id="veh_294" type="car" depart="163.3" from="A7A8" to="G7G6"/>
    <trip id="veh_1681" type="car" depart="163.7" from="A6A5" to="K3J3"/>
    <trip id="veh_1786" type="car" depart="163.8" from="O10O11" to="N2N3"/>
    <trip id="veh_1313" type="car" depart="166.5" from="O4O5" to="H6I6"/>
    <trip id="veh_669" type="car" depart="166.8" from="O2N2" to="E2F2"/>
    <trip id="veh_1645" type="car" depart="166.9" from="G14F14" to="H13G13"/>
    <trip id="veh_571" type="car" depart="167.7" from="A14A13" to="J9I9"/>
    <trip id="veh_1751" type="car" depart="167.7" from="A11A10" to="D11E11"/>
    <trip id="veh_1427" type="car" depart="171.2" from="M14N14" to="I6H6"/>
    <trip id="veh_964" type="car" depart="171.7" from="I0J0" to="H1G1"/>
    <trip id="veh_117" type="car" depart="173.2" from="K0K1" to="H4H5"/>
    <trip id="veh_1755" type="car" depart="174.4" from="G14F14" to="A11B11"/>
    <trip id="veh_843" type="car" depart="174.5" from="H0G0" to="I7I6"/>
    <trip id="veh_498" type="car" depart="174.9" from="K0K1" to="J5K5"/>
    <trip id="veh_348" type="car" depart="181.0" from="A11A12" to="I9H9"/>
    <trip id="veh_1521" type="car" depart="181.7" from="O2N2" to="O5N5"/>
    <trip id="veh_2273" type="car" depart="182.1" from="K0K1" to="N9M9"/>
    <trip id="veh_1870" type="car" depart="184.5" from="A3B3" to="A12B12"/>
    <trip id="veh_1819" type="car" depart="188.5" from="F14G14" to="E2D2"/>
    <trip id="veh_1571" type="car" depart="192.2" from="E14E13" to="D9D10"/>
    <trip id="veh_1130" type="car" depart="192.7" from="A7A8" to="O3N3"/>
    <trip id="veh_2162" type="car" depart="193.4" from="E14F14" to="I1J1"/>
    <trip id="veh_2075" type="car" depart="194.2" from="L0M0" to="N6N5"/>
    <trip id="veh_2185" type="car" depart="194.4" from="A5B5" to="B7C7"/>
    <trip id="veh_1871" type="car" depart="196.3" from="N0M0" to="J4J3"/>
    <trip id="veh_586" type="car" depart="196.6" from="F0F1" to="G5F5"/>
    <trip id="veh_1114" type="car" depart="203.6" from="I14H14" to="E6E5"/>
    <trip id="veh_1714" type="car" depart="206.3" from="A6A5" to="E8E9"/>
    <trip id="veh_1629" type="car" depart="207.4" from="O9N9" to="D7D6"/>
    <trip id="veh_1697" type="car" depart="209.6" from="N14N13" to="N13M13"/>
    <trip id="veh_540" type="car" depart="212.2" from="O13O14" to="H6I6"/>
    <trip id="veh_771" type="car" depart="216.7" from="A8A7" to="C1C2"/>
    <trip id="veh_216" type="car" depart="218.3" from="H14I14" to="L2M2"/>
    <trip id="veh_56" type="car" depart="218.8" from="N14N13" to="I3H3"/>
    <trip id="veh_2" type="car" depart="220.6" from="A2A1" to="L4L5"/>
    <trip id="veh_83" type="car" depart="221.0" from="I14I13" to="I11I10"/>
    <trip id="veh_2024" type="car" depart="221.1" from="F0E0" to="M1M2"/>
    <trip id="veh_1507" type="car" depart="222.1" from="E0F0" to="B5B4"/>
    <trip id="veh_1220" type="car" depart="223.6" from="G0G1" to="E5E4"/>
    <trip id="veh_2156" type="car" depart="223.7" from="M14L14" to="F3F4"/>
    <trip id="veh_2113" type="car" depart="224.2" from="I14J14" to="I1I2"/>
    <trip id="veh_2490" type="car" depart="224.6" from="I0H0" to="H2H1"/>
    <trip id="veh_1979" type="car" depart="225.1" from="J0K0" to="F3F4"/>
    <trip id="veh_2025" type="car" depart="225.7" from="H14H13" to="L5M5"/>
    <trip id="veh_830" type="car" depart="225.9" from="O7O6" to="N3N4"/>
    <trip id="veh_2292" type="car" depart="227.6" from="A4B4" to="L10K10"/>
    <trip id="veh_613" type="car" depart="229.1" from="O12N12" to="M10M9"/>
    <trip id="veh_493" type="car" depart="230.7" from="O1O2" to="I4H4"/>
    <trip id="veh_706" type="car" depart="232.3" from="F14F13" to="H8I8"/>
    <trip id="veh_1800" type="car" depart="233.4" from="L0M0" to="K14K13"/>
    <trip id="veh_1742" type="car" depart="234.0" from="O0O1" to="E6D6"/>
    <trip id="veh_754" type="car" depart="240.1" from="O9O10" to="I12H12"/>
    <trip id="veh_2230" type="car" depart="241.4" from="O11O12" to="N6N5"/>
    <trip id="veh_2468" type="car" depart="242.7" from="O5N5" to="H1G1"/>
    <trip id="veh_346" type="car" depart="245.2" from="K14J14" to="I5H5"/>
    <trip id="veh_1004" type="car" depart="248.5" from="K14K13" to="E7E8"/>
    <trip id="veh_203" type="car" depart="249.3" from="A9A10" to="D12D11"/>
    <trip id="veh_2283" type="car" depart="252.0" from="A2A3" to="F7F8"/>
    <trip id="veh_1648" type="car" depart="252.3" from="N14N13" to="F11E11"/>
    <trip id="veh_679" type="car" depart="253.7" from="K0K1" to="I10I11"/>
    <trip id="veh_948" type="car" depart="255.6" from="O12O13" to="K8K7"/>
    <trip id="veh_908" type="car" depart="255.7" from="O6O5" to="E8F8"/>
    <trip id="veh_798" type="car" depart="256.7" from="O2N2" to="K9K8"/>
    <trip id="veh_1069" type="car" depart="257.7" from="O11O12" to="A11B11"/>
    <trip id="veh_1570" type="car" depart="259.8" from="B0A0" to="H8H7"/>
    <trip id="veh_607" type="car" depart="261.8" from="B14B13" to="H14H13"/>
    <trip id="veh_2275" type="car" depart="261.8" from="A9A10" to="J1K1"/>
    <trip id="veh_1981" type="car" depart="262.9" from="C14C13" to="I11I12"/>
    <trip id="veh_1593" type="car" depart="263.2" from="O14O13" to="D10D9"/>
    <trip id="veh_2087" type="car" depart="263.9" from="M14N14" to="J4J3"/>
    <trip id="veh_1425" type="car" depart="264.7" from="A6B6" to="H5G5"/>
    <trip id="veh_1463" type="car" depart="266.0" from="F14G14" to="M7N7"/>
    <trip id="veh_2276" type="car" depart="266.0" from="D14E14" to="F7F8"/>
    <trip id="veh_1474" type="car" depart="266.3" from="A3B3" to="I7I8"/>
    <trip id="veh_2226" type="car" depart="267.1" from="N14N13" to="M4N4"/>
    <trip id="veh_481" type="car" depart="268.8" from="J14J13" to="H0H1"/>
    <trip id="veh_2031" type="car" depart="269.2" from="D14D13" to="A2B2"/>
    <trip id="veh_2061" type="car" depart="269.5" from="J14I14" to="I5J5"/>
    <trip id="veh_762" type="car" depart="273.1" from="A11A10" to="D6E6"/>
    <trip id="veh_587" type="car" depart="273.3" from="D0D1" to="D1C1"/>
    <trip id="veh_1058" type="car" depart="275.6" from="O8O7" to="K12K11"/>
    <trip id="veh_1207" type="car" depart="276.3" from="G0G1" to="I9I8"/>
    <trip id="veh_49" type="car" depart="278.8" from="D0C0" to="A4B4"/>
    <trip id="veh_1966" type="car" depart="278.9" from="O11O10" to="C1B1"/>
    <trip id="veh_1077" type="car" depart="279.6" from="E0F0" to="D8E8"/>
    <trip id="veh_1962" type="car" depart="280.2" from="A1A2" to="I6I5"/>
    <trip id="veh_522" type="car" depart="282.3" from="A8A9" to="H2H1"/>
    <trip id="veh_1976" type="car" depart="282.3" from="A10A9" to="M8N8"/>
    <trip id="veh_1633" type="car" depart="287.9" from="O3N3" to="H12H11"/>
    <trip id="veh_1972" type="car" depart="289.0" from="O0O1" to="L9M9"/>
    <trip id="veh_1532" type="car" depart="291.7" from="F0F1" to="K7J7"/>
    <trip id="veh_2147" type="car" depart="292.9" from="L14M14" to="L3M3"/>
    <trip id="veh_998" type="car" depart="293.0" from="E14F14" to="K9K8"/>
    <trip id="veh_2096" type="car" depart="297.3" from="K14K13" to="E4E5"/>
    <trip id="veh_452" type="car" depart="297.9" from="O0N0" to="F11E11"/>
    <trip id="veh_1095" type="car" depart="299.8" from="D14E14" to="D6D5"/>
    <trip id="veh_704" type="car" depart="300.6" from="O5N5" to="F6E6"/>
    <trip id="veh_835" type="car" depart="300.8" from="O1N1" to="J1I1"/>
    <trip id="veh_1218" type="car" depart="304.2" from="A10A9" to="B4C4"/>
    <trip id="veh_1618" type="car" depart="306.2" from="O7O8" to="I1H1"/>
    <trip id="veh_729" type="car" depart="307.3" from="D0D1" to="N4N5"/>
    <trip id="veh_2092" type="car" depart="307.9" from="A9B9" to="I3J3"/>
    <trip id="veh_1303" type="car" depart="311.0" from="O2N2" to="D7D6"/>
    <trip id="veh_1312" type="car" depart="311.0" from="E14D14" to="H7H8"/>
    <trip id="veh_1321" type="car" depart="311.7" from="A4A5" to="E11D11"/>
    <trip id="veh_1200" type="car" depart="311.8" from="M0N0" to="B5C5"/>
    <trip id="veh_720" type="car" depart="313.0" from="A13A14" to="I4I5"/>
    <trip id="veh_2288" type="car" depart="313.0" from="D14E14" to="K6J6"/>
    <trip id="veh_859" type="car" depart="313.2" from="B0B1" to="H13G13"/>
    <trip id="veh_2407" type="car" depart="317.6" from="A11B11" to="L10M10"/>
    <trip id="veh_1854" type="car" depart="317.9" from="E14E13" to="M9M10"/>
    <trip id="veh_2487" type="car" depart="317.9" from="M14L14" to="C7C6"/>
    <trip id="veh_2373" type="car" depart="319.6" from="H14G14" to="N10M10"/>
    <trip id="veh_300" type="car" depart="319.9" from="M14N14" to="D4C4"/>
    <trip id="veh_876" type="car" depart="322.7" from="O0O1" to="N9N8"/>
    <trip id="veh_1785" type="car" depart="324.0" from="C14B14" to="I10I9"/>
    <trip id="veh_1931" type="car" depart="324.2" from="A8A9" to="H11H10"/>
    <trip id="veh_1468" type="car" depart="325.2" from="E0E1" to="O3N3"/>
    <trip id="veh_570" type="car" depart="325.4" from="O13O12" to="G2G1"/>
    <trip id="veh_844" type="car" depart="327.2" from="C14D14" to="F0F1"/>
    <trip id="veh_2332" type="car" depart="330.3" from="O12N12" to="F10E10"/>
    <trip id="veh_2402" type="car" depart="330.4" from="A11B11" to="J2K2"/>
    <trip id="veh_1656" type="car" depart="331.3" from="N14N13" to="D6E6"/>
    <trip id="veh_1587" type="car" depart="334.4" from="A12A13" to="L3K3"/>
    <trip id="veh_1031" type="car" depart="335.6" from="N0O0" to="M11M12"/>
    <trip id="veh_1364" type="car" depart="335.6" from="A10A11" to="D5D6"/>
    <trip id="veh_513" type="car" depart="337.9" from="O3O4" to="H8H7"/>
    <trip id="veh_1902" type="car" depart="338.5" from="B0B1" to="H7H8"/>
    <trip id="veh_1884" type="car" depart="339.3" from="A6A5" to="I9H9"/>
    <trip id="veh_902" type="car" depart="340.1" from="K14L14" to="I11I10"/>
    <trip id="veh_967" type="car" depart="341.4" from="A12A11" to="B4C4"/>
    <trip id="veh_1627" type="car" depart="346.1" from="O10O9" to="K13J13"/>
    <trip id="veh_1053" type="car" depart="347.2" from="A13B13" to="G5G4"/>
    <trip id="veh_937" type="car" depart="350.2" from="I0I1" to="E4E3"/>
    <trip id="veh_1798" type="car" depart="351.4" from="G14F14" to="C2D2"/>
    <trip id="veh_1129" type="car" depart="352.2" from="O1N1" to="C12D12"/>
    <trip id="veh_994" type="car" depart="352.7" from="O7O8" to="G7G6"/>
    <trip id="veh_312" type="car" depart="353.2" from="E14D14" to="C10B10"/>
    <trip id="veh_2095" type="car" depart="354.5" from="O4O3" to="G9G8"/>
    <trip id="veh_1852" type="car" depart="358.0" from="D0C0" to="I13J13"/>
    <trip id="veh_1883" type="car" depart="363.3" from="O6O7" to="G3H3"/>
    <trip id="veh_1857" type="car" depart="363.8" from="O13N13" to="M11N11"/>
    <trip id="veh_210" type="car" depart="364.2" from="B14B13" to="F12E12"/>
    <trip id="veh_238" type="car" depart="364.2" from="H0H1" to="B11B10"/>
    <trip id="veh_505" type="car" depart="364.5" from="O6N6" to="N11N10"/>
    <trip id="veh_2210" type="car" depart="366.2" from="A3A4" to="E12E11"/>
    <trip id="veh_145" type="car" depart="366.5" from="H14I14" to="J1I1"/>
    <trip id="veh_918" type="car" depart="366.8" from="H0H1" to="I11H11"/>
    <trip id="veh_867" type="car" depart="367.3" from="O10N10" to="K12J12"/>
    <trip id="veh_271" type="car" depart="367.4" from="O12O13" to="H7I7"/>
    <trip id="veh_1360" type="car" depart="368.2" from="E14D14" to="F13E13"/>
    <trip id="veh_1367" type="car" depart="368.6" from="H0H1" to="M6L6"/>
    <trip id="veh_321" type="car" depart="369.0" from="C0D0" to="E2D2"/>
    <trip id="veh_114" type="car" depart="369.7" from="F14F13" to="M4M3"/>
    <trip id="veh_168" type="car" depart="371.0" from="O7O8" to="G13F13"/>
    <trip id="veh_2471" type="car" depart="371.5" from="O13O12" to="H5G5"/>
    <trip id="veh_20" type="car" depart="373.2" from="O0N0" to="I9I10"/>
    <trip id="veh_524" type="car" depart="376.0" from="N0O0" to="J9J8"/>
    <trip id="veh_746" type="car" depart="379.0" from="O12O11" to="J13K13"/>
    <trip id="veh_69" type="car" depart="379.8" from="O8N8" to="F4F3"/>
    <trip id="veh_36" type="car" depart="380.5" from="O4O5" to="J4J5"/>
    <trip id="veh_174" type="car" depart="382.8" from="O7N7" to="N6N7"/>
    <trip id="veh_974" type="car" depart="383.3" from="G14H14" to="B7C7"/>
    <trip id="veh_1717" type="car" depart="383.8" from="H0I0" to="M11M12"/>
    <trip id="veh_1642" type="car" depart="383.9" from="O14O13" to="K2J2"/>
    <trip id="veh_2115" type="car" depart="385.0" from="B0C0" to="C7B7"/>
    <trip id="veh_1359" type="car" depart="390.3" from="O7O8" to="G7H7"/>
    <trip id="veh_1784" type="car" depart="390.7" from="O7O8" to="H14H13"/>
    <trip id="veh_58" type="car" depart="391.8" from="C14D14" to="K10K11"/>
    <trip id="veh_1266" type="car" depart="391.8" from="A5B5" to="D10D11"/>
    <trip id="veh_2331" type="car" depart="393.4" from="H14H13" to="B7B8"/>
    <trip id="veh_1306" type="car" depart="394.6" from="J0J1" to="M9N9"/>
    <trip id="veh_1462" type="car" depart="395.8" from="M14N14" to="I5J5"/>
    <trip id="veh_598" type="car" depart="398.2" from="O10O11" to="G3G2"/>
    <trip id="veh_776" type="car" depart="398.5" from="C14B14" to="J4J5"/>
    <trip id="veh_2138" type="car" depart="398.5" from="O12N12" to="B1C1"/>
    <trip id="veh_904" type="car" depart="399.2" from="A9B9" to="M12M13"/>
    <trip id="veh_1448" type="car" depart="401.2" from="I0J0" to="I10J10"/>
    <trip id="veh_1923" type="car" depart="402.6" from="A8A9" to="L9L10"/>
    <trip id="veh_2227" type="car" depart="403.3" from="I14H14" to="L4K4"/>
    <trip id="veh_1163" type="car" depart="404.8" from="B14A14" to="C10C11"/>
    <trip id="veh_588" type="car" depart="406.0" from="E14F14" to="M7N7"/>
    <trip id="veh_1465" type="car" depart="406.4" from="B0B1" to="D4D3"/>
    <trip id="veh_1450" type="car" depart="406.6" from="A9B9" to="H1G1"/>
    <trip id="veh_1827" type="car" depart="408.5" from="A8A7" to="G4G3"/>
    <trip id="veh_1054" type="car" depart="408.6" from="O1O0" to="B8B9"/>
    <trip id="veh_2404" type="car" depart="409.2" from="J14K14" to="M12N12"/>
    <trip id="veh_2059" type="car" depart="409.4" from="J0I0" to="C13C12"/>
    <trip id="veh_500" type="car" depart="413.3" from="O13O12" to="E5D5"/>
    <trip id="veh_919" type="car" depart="418.3" from="B0A0" to="K6L6"/>
    <trip id="veh_512" type="car" depart="418.9" from="O10N10" to="N7N6"/>
    <trip id="veh_1016" type="car" depart="419.3" from="E0E1" to="I10H10"/>
    <trip id="veh_1459" type="car" depart="419.6" from="I0H0" to="D2D3"/>
    <trip id="veh_1975" type="car" depart="420.8" from="G0G1" to="N3N2"/>
    <trip id="veh_1951" type="car" depart="424.5" from="O11N11" to="D3D4"/>
    <trip id="veh_1002" type="car" depart="424.6" from="A6A5" to="K1L1"/>
    <trip id="veh_465" type="car" depart="426.5" from="H14I14" to="D1E1"/>
    <trip id="veh_372" type="car" depart="428.4" from="O8N8" to="K0K1"/>
    <trip id="veh_1216" type="car" depart="428.5" from="A2B2" to="C2C3"/>
    <trip id="veh_68" type="car" depart="428.6" from="O5O6" to="N2N3"/>
    <trip id="veh_1041" type="car" depart="429.0" from="A1A2" to="M3M4"/>
    <trip id="veh_2366" type="car" depart="432.7" from="D0C0" to="C10B10"/>
    <trip id="veh_2065" type="car" depart="435.4" from="O11O12" to="I3H3"/>
    <trip id="veh_2173" type="car" depart="435.4" from="I0J0" to="F9G9"/>
    <trip id="veh_2384" type="car" depart="435.6" from="O1O0" to="B6C6"/>
    <trip id="veh_895" type="car" depart="435.9" from="H14H13" to="L9M9"/>
    <trip id="veh_1886" type="car" depart="436.2" from="A0B0" to="H13I13"/>
    <trip id="veh_1242" type="car" depart="436.8" from="F0E0" to="C11D11"/>
    <trip id="veh_834" type="car" depart="437.6" from="F0G0" to="H9G9"/>
    <trip id="veh_2486" type="car" depart="437.8" from="A6A5" to="L10K10"/>
    <trip id="veh_2130" type="car" depart="439.2" from="O9O10" to="M4N4"/>
    <trip id="veh_1567" type="car" depart="443.4" from="A6B6" to="H5G5"/>
    <trip id="veh_1432" type="car" depart="443.5" from="O6O7" to="L3K3"/>
    <trip id="veh_30" type="car" depart="443.8" from="O2O3" to="H13G13"/>
    <trip id="veh_923" type="car" depart="445.5" from="A1A2" to="N5M5"/>
    <trip id="veh_1419" type="car" depart="446.6" from="O13O12" to="E1F1"/>
    <trip id="veh_811" type="car" depart="447.0" from="H0I0" to="N4N5"/>
    <trip id="veh_2388" type="car" depart="451.5" from="O14O13" to="F1E1"/>
    <trip id="veh_2295" type="car" depart="452.3" from="F14E14" to="N11N12"/>
    <trip id="veh_1952" type="car" depart="455.6" from="O7N7" to="H9H8"/>
    <trip id="veh_1389" type="car" depart="459.7" from="L14L13" to="K8J8"/>
    <trip id="veh_1237" type="car" depart="460.2" from="A9A8" to="D13C13"/>
    <trip id="veh_314" type="car" depart="462.9" from="O13N13" to="C6C5"/>
    <trip id="veh_74" type="car" depart="463.9" from="N0N1" to="N13M13"/>
    <trip id="veh_1409" type="car" depart="464.1" from="D14E14" to="J10J11"/>
    <trip id="veh_2131" type="car" depart="465.4" from="A12A13" to="B5B6"/>
    <trip id="veh_1035" type="car" depart="466.8" from="D0D1" to="H6G6"/>
    <trip id="veh_1866" type="car" depart="466.9" from="A0B0" to="E3E4"/>
    <trip id="veh_355" type="car" depart="469.4" from="F0E0" to="B12B13"/>
    <trip id="veh_1659" type="car" depart="469.8" from="A3B3" to="D5D6"/>
    <trip id="veh_1127" type="car" depart="470.7" from="H0I0" to="H11G11"/>
    <trip id="veh_327" type="car" depart="474.0" from="L0K0" to="E12E13"/>
    <trip id="veh_991" type="car" depart="475.1" from="O11N11" to="M7L7"/>
    <trip id="veh_779" type="car" depart="475.4" from="M14N14" to="F9F10"/>
    <trip id="veh_1757" type="car" depart="476.9" from="G0F0" to="D10D11"/>
    <trip id="veh_2396" type="car" depart="477.6" from="O3O4" to="D7D6"/>
    <trip id="veh_1592" type="car" depart="477.9" from="O8O9" to="M9L9"/>
    <trip id="veh_1115" type="car" depart="478.8" from="J14J13" to="M7M6"/>
    <trip id="veh_155" type="car" depart="479.3" from="G0G1" to="K4K5"/>
    <trip id="veh_2097" type="car" depart="481.1" from="J14I14" to="E1D1"/>
    <trip id="veh_1318" type="car" depart="481.4" from="A4A3" to="D10D11"/>
    <trip id="veh_2208" type="car" depart="481.5" from="B0A0" to="F11E11"/>
    <trip id="veh_947" type="car" depart="482.1" from="O9O10" to="I3H3"/>
    <trip id="veh_1027" type="car" depart="482.2" from="G14H14" to="N11M11"/>
    <trip id="veh_1885" type="car" depart="483.3" from="O6O5" to="G8F8"/>
    <trip id="veh_1171" type="car" depart="483.4" from="O2O1" to="K1L1"/>
    <trip id="veh_201" type="car" depart="485.2" from="B14C14" to="M3L3"/>
    <trip id="veh_449" type="car" depart="486.7" from="G14G13" to="C8D8"/>
    <trip id="veh_62" type="car" depart="487.5" from="D0D1" to="J3J2"/>
    <trip id="veh_102" type="car" depart="488.5" from="O8N8" to="G3G4"/>
    <trip id="veh_124" type="car" depart="489.7" from="D14D13" to="B13C13"/>
    <trip id="veh_2369" type="car" depart="490.4" from="O2N2" to="A2B2"/>
    <trip id="veh_154" type="car" depart="493.1" from="O9O8" to="E2E3"/>
    <trip id="veh_870" type="car" depart="494.1" from="D0C0" to="G8H8"/>
    <trip id="veh_774" type="car" depart="494.8" from="A8A7" to="J8J9"/>
    <trip id="veh_955" type="car" depart="495.0" from="O2N2" to="J10I10"/>
    <trip id="veh_2285" type="car" depart="495.9" from="A6A7" to="I6J6"/>
    <trip id="veh_2289" type="car" depart="496.9" from="B0B1" to="J2J1"/>
    <trip id="veh_1520" type="car" depart="498.0" from="O9N9" to="K8K7"/>
    <trip id="veh_1082" type="car" depart="498.5" from="I14H14" to="D6E6"/>
    <trip id="veh_2359" type="car" depart="498.7" from="A1A0" to="F9E9"/>
    <trip id="veh_2237" type="car" depart="499.3" from="B0B1" to="H4G4"/>
    <trip id="veh_1352" type="car" depart="499.9" from="F0F1" to="L13L12"/>
    <trip id="veh_538" type="car" depart="500.1" from="O13N13" to="J11J10"/>
    <trip id="veh_1323" type="car" depart="500.6" from="A8A9" to="G4H4"/>
    <trip id="veh_1477" type="car" depart="501.5" from="A11A10" to="B5B4"/>
    <trip id="veh_1600" type="car" depart="503.4" from="C0B0" to="E8E7"/>
    <trip id="veh_254" type="car" depart="504.1" from="B14C14" to="N13N12"/>
    <trip id="veh_758" type="car" depart="506.0" from="B14A14" to="I10H10"/>
    <trip id="veh_43" type="car" depart="506.1" from="A2A1" to="H5H4"/>
    <trip id="veh_2255" type="car" depart="506.9" from="N0O0" to="E13F13"/>
    <trip id="veh_362" type="car" depart="509.3" from="A1A0" to="M14M13"/>
    <trip id="veh_40" type="car" depart="509.7" from="H14H13" to="I4I3"/>
    <trip id="veh_990" type="car" depart="511.5" from="A1A0" to="E3F3"/>
    <trip id="veh_907" type="car" depart="511.9" from="H14G14" to="F3E3"/>
    <trip id="veh_2440" type="car" depart="511.9" from="O2O3" to="H10I10"/>
    <trip id="veh_1828" type="car" depart="514.7" from="A5A4" to="C6D6"/>
    <trip id="veh_2026" type="car" depart="520.0" from="N14M14" to="N13M13"/>
    <trip id="veh_1188" type="car" depart="520.1" from="O6N6" to="L3L4"/>
    <trip id="veh_456" type="car" depart="520.3" from="E14D14" to="H7G7"/>
    <trip id="veh_1746" type="car" depart="524.0" from="J0K0" to="D6D5"/>
    <trip id="veh_1479" type="car" depart="525.3" from="N0O0" to="M10L10"/>
    <trip id="veh_1934" type="car" depart="525.6" from="A2A1" to="L3M3"/>
    <trip id="veh_2195" type="car" depart="526.6" from="L14M14" to="D12D13"/>
    <trip id="veh_406" type="car" depart="526.7" from="O4O5" to="L11K11"/>
    <trip id="veh_1455" type="car" depart="527.1" from="L14L13" to="A3B3"/>
    <trip id="veh_460" type="car" depart="528.4" from="J14J13" to="D10C10"/>
    <trip id="veh_1868" type="car" depart="529.3" from="O5O6" to="F7F6"/>
    <trip id="veh_1834" type="car" depart="530.8" from="G14G13" to="I10H10"/>