<?xml version="1.0" encoding="UTF-8"?>
<additional>
    <poly id="floor_off_street_0" color="40,40,40" fill="true" layer="0" shape="265.00,2388.00 265.00,2345.00 335.00,2345.00 335.00,2388.00"/>
    <poly id="driveway_off_street_0" color="40,40,40" fill="true" layer="1" shape="296.00,2395.00 296.00,2388.00 304.00,2388.00 304.00,2395.00"/>
    <poly id="wall_off_street_0" color="200,200,200" fill="false" lineWidth="2" layer="2" shape="296.00,2388.00 265.00,2388.00 265.00,2345.00 335.00,2345.00 335.00,2388.00 304.00,2388.00"/>
    <parkingArea id="off_street_0" lane="B12C12_0" startPos="98.5" endPos="101.5" roadsideCapacity="0" onRoad="false">
        <space x="269.60" y="2378.00" angle="180.00" width="2.8" length="5.5"/>
        <space x="272.80" y="2378.00" angle="180.00" width="2.8" length="5.5"/>
        <space x="276.00" y="2378.00" angle="180.00" width="2.8" length="5.5"/>
        <space x="279.20" y="2378.00" angle="180.00" width="2.8" length="5.5"/>
        <space x="282.40" y="2378.00" angle="180.00" width="2.8" length="5.5"/>
        <space x="285.60" y="2378.00" angle="180.00" width="2.8" length="5.5"/>
        <space x="288.80" y="2378.00" angle="180.00" width="2.8" length="5.5"/>
        <space x="292.00" y="2378.00" angle="180.00" width="2.8" length="5.5"/>
        <space x="295.20" y="2378.00" angle="180.00" width="2.8" length="5.5"/>
        <space x="304.80" y="2378.00" angle="180.00" width="2.8" length="5.5"/>
        <space x="308.00" y="2378.00" angle="180.00" width="2.8" length="5.5"/>
        <space x="311.20" y="2378.00" angle="180.00" width="2.8" length="5.5"/>
        <space x="314.40" y="2378.00" angle="180.00" width="2.8" length="5.5"/>
        <space x="317.60" y="2378.00" angle="180.00" width="2.8" length="5.5"/>
        <space x="320.80" y="2378.00" angle="180.00" width="2.8" length="5.5"/>
        <space x="324.00" y="2378.00" angle="180.00" width="2.8" length="5.5"/>
        <space x="327.20" y="2378.00" angle="180.00" width="2.8" length="5.5"/>
        <space x="330.40" y="2378.00" angle="180.00" width="2.8" length="5.5"/>
        <space x="269.60" y="2355.00" angle="0.00" width="2.8" length="5.5"/>
        <space x="272.80" y="2355.00" angle="0.00" width="2.8" length="5.5"/>
        <space x="276.00" y="2355.00" angle="0.00" width="2.8" length="5.5"/>
        <space x="279.20" y="2355.00" angle="0.00" width="2.8" length="5.5"/>
        <space x="282.40" y="2355.00" angle="0.00" width="2.8" length="5.5"/>
        <space x="285.60" y="2355.00" angle="0.00" width="2.8" length="5.5"/>
        <space x="288.80" y="2355.00" angle="0.00" width="2.8" length="5.5"/>
        <space x="292.00" y="2355.00" angle="0.00" width="2.8" length="5.5"/>
        <space x="295.20" y="2355.00" angle="0.00" width="2.8" length="5.5"/>
        <space x="298.40" y="2355.00" angle="0.00" width="2.8" length="5.5"/>
        <space x="301.60" y="2355.00" angle="0.00" width="2.8" length="5.5"/>
        <space x="304.80" y="2355.00" angle="0.00" width="2.8" length="5.5"/>
        <space x="308.00" y="2355.00" angle="0.00" width="2.8" length="5.5"/>
        <space x="311.20" y="2355.00" angle="0.00" width="2.8" length="5.5"/>
        <space x="314.40" y="2355.00" angle="0.00" width="2.8" length="5.5"/>
        <space x="317.60" y="2355.00" angle="0.00" width="2.8" length="5.5"/>
        <space x="320.80" y="2355.00" angle="0.00" width="2.8" length="5.5"/>
        <space x="324.00" y="2355.00" angle="0.00" width="2.8" length="5.5"/>
        <space x="327.20" y="2355.00" angle="0.00" width="2.8" length="5.5"/>
        <space x="330.40" y="2355.00" angle="0.00" width="2.8" length="5.5"/>
    </parkingArea>
    <poly id="floor_off_street_1" color="40,40,40" fill="true" layer="0" shape="1735.00,2812.00 1735.00,2855.00 1665.00,2855.00 1665.00,2812.00"/>
    <poly id="driveway_off_street_1" color="40,40,40" fill="true" layer="1" shape="1704.00,2805.00 1704.00,2812.00 1696.00,2812.00 1696.00,2805.00"/>
    <poly id="wall_off_street_1" color="200,200,200" fill="false" lineWidth="2" layer="2" shape="1704.00,2812.00 1735.00,2812.00 1735.00,2855.00 1665.00,2855.00 1665.00,2812.00 1696.00,2812.00"/>
    <parkingArea id="off_street_1" lane="J14I14_0" startPos="98.5" endPos="101.5" roadsideCapacity="0" onRoad="false">
        <space x="1730.40" y="2822.00" angle="0.00" width="2.8" length="5.5"/>
        <space x="1727.20" y="2822.00" angle="0.00" width="2.8" length="5.5"/>
        <space x="1724.00" y="2822.00" angle="0.00" width="2.8" length="5.5"/>
        <space x="1720.80" y="2822.00" angle="0.00" width="2.8" length="5.5"/>
        <space x="1717.60" y="2822.00" angle="0.00" width="2.8" length="5.5"/>
        <space x="1714.40" y="2822.00" angle="0.00" width="2.8" length="5.5"/>
        <space x="1711.20" y="2822.00" angle="0.00" width="2.8" length="5.5"/>
        <space x="1708.00" y="2822.00" angle="0.00" width="2.8" length="5.5"/>
        <space x="1704.80" y="2822.00" angle="0.00" width="2.8" length="5.5"/>
        <space x="1695.20" y="2822.00" angle="0.00" width="2.8" length="5.5"/>
        <space x="1692.00" y="2822.00" angle="0.00" width="2.8" length="5.5"/>
        <space x="1688.80" y="2822.00" angle="0.00" width="2.8" length="5.5"/>
        <space x="1685.60" y="2822.00" angle="0.00" width="2.8" length="5.5"/>
        <space x="1682.40" y="2822.00" angle="0.00" width="2.8" length="5.5"/>
        <space x="1679.20" y="2822.00" angle="0.00" width="2.8" length="5.5"/>
        <space x="1676.00" y="2822.00" angle="0.00" width="2.8" length="5.5"/>
        <space x="1672.80" y="2822.00" angle="0.00" width="2.8" length="5.5"/>
        <space x="1669.60" y="2822.00" angle="0.00" width="2.8" length="5.5"/>
        <space x="1730.40" y="2845.00" angle="180.00" width="2.8" length="5.5"/>
        <space x="1727.20" y="2845.00" angle="180.00" width="2.8" length="5.5"/>
        <space x="1724.00" y="2845.00" angle="180.00" width="2.8" length="5.5"/>
        <space x="1720.80" y="2845.00" angle="180.00" width="2.8" length="5.5"/>
        <space x="1717.60" y="2845.00" angle="180.00" width="2.8" length="5.5"/>
        <space x="1714.40" y="2845.00" angle="180.00" width="2.8" length="5.5"/>
        <space x="1711.20" y="2845.00" angle="180.00" width="2.8" length="5.5"/>
        <space x="1708.00" y="2845.00" angle="180.00" width="2.8" length="5.5"/>
        <space x="1704.80" y="2845.00" angle="180.00" width="2.8" length="5.5"/>
        <space x="1701.60" y="2845.00" angle="180.00" width="2.8" length="5.5"/>
        <space x="1698.40" y="2845.00" angle="180.00" width="2.8" length="5.5"/>
        <space x="1695.20" y="2845.00" angle="180.00" width="2.8" length="5.5"/>
        <space x="1692.00" y="2845.00" angle="180.00" width="2.8" length="5.5"/>
        <space x="1688.80" y="2845.00" angle="180.00" width="2.8" length="5.5"/>
        <space x="1685.60" y="2845.00" angle="180.00" width="2.8" length="5.5"/>
        <space x="1682.40" y="2845.00" angle="180.00" width="2.8" length="5.5"/>
        <space x="1679.20" y="2845.00" angle="180.00" width="2.8" length="5.5"/>
        <space x="1676.00" y="2845.00" angle="180.00" width="2.8" length="5.5"/>
        <space x="1672.80" y="2845.00" angle="180.00" width="2.8" length="5.5"/>
        <space x="1669.60" y="2845.00" angle="180.00" width="2.8" length="5.5"/>
    </parkingArea>
    <poly id="floor_off_street_2" color="40,40,40" fill="true" layer="0" shape="2788.00,1135.00 2745.00,1135.00 2745.00,1065.00 2788.00,1065.00"/>
    <poly id="driveway_off_street_2" color="40,40,40" fill="true" layer="1" shape="2795.00,1104.00 2788.00,1104.00 2788.00,1096.00 2795.00,1096.00"/>
    <poly id="wall_off_street_2" color="200,200,200" fill="false" lineWidth="2" layer="2" shape="2788.00,1104.00 2788.00,1135.00 2745.00,1135.00 2745.00,1065.00 2788.00,1065.00 2788.00,1096.00"/>
    <parkingArea id="off_street_2" lane="O6O5_0" startPos="98.5" endPos="101.5" roadsideCapacity="0" onRoad="false">
        <space x="2778.00" y="1130.40" angle="270.00" width="2.8" length="5.5"/>
        <space x="2778.00" y="1127.20" angle="270.00" width="2.8" length="5.5"/>
        <space x="2778.00" y="1124.00" angle="270.00" width="2.8" length="5.5"/>
        <space x="2778.00" y="1120.80" angle="270.00" width="2.8" length="5.5"/>
        <space x="2778.00" y="1117.60" angle="270.00" width="2.8" length="5.5"/>
        <space x="2778.00" y="1114.40" angle="270.00" width="2.8" length="5.5"/>
        <space x="2778.00" y="1111.20" angle="270.00" width="2.8" length="5.5"/>
        <space x="2778.00" y="1108.00" angle="270.00" width="2.8" length="5.5"/>
        <space x="2778.00" y="1104.80" angle="270.00" width="2.8" length="5.5"/>
        <space x="2778.00" y="1095.20" angle="270.00" width="2.8" length="5.5"/>
        <space x="2778.00" y="1092.00" angle="270.00" width="2.8" length="5.5"/>
        <space x="2778.00" y="1088.80" angle="270.00" width="2.8" length="5.5"/>
        <space x="2778.00" y="1085.60" angle="270.00" width="2.8" length="5.5"/>
        <space x="2778.00" y="1082.40" angle="270.00" width="2.8" length="5.5"/>
        <space x="2778.00" y="1079.20" angle="270.00" width="2.8" length="5.5"/>
        <space x="2778.00" y="1076.00" angle="270.00" width="2.8" length="5.5"/>
        <space x="2778.00" y="1072.80" angle="270.00" width="2.8" length="5.5"/>
        <space x="2778.00" y="1069.60" angle="270.00" width="2.8" length="5.5"/>
        <space x="2755.00" y="1130.40" angle="90.00" width="2.8" length="5.5"/>
        <space x="2755.00" y="1127.20" angle="90.00" width="2.8" length="5.5"/>
        <space x="2755.00" y="1124.00" angle="90.00" width="2.8" length="5.5"/>
        <space x="2755.00" y="1120.80" angle="90.00" width="2.8" length="5.5"/>
        <space x="2755.00" y="1117.60" angle="90.00" width="2.8" length="5.5"/>
        <space x="2755.00" y="1114.40" angle="90.00" width="2.8" length="5.5"/>
        <space x="2755.00" y="1111.20" angle="90.00" width="2.8" length="5.5"/>
        <space x="2755.00" y="1108.00" angle="90.00" width="2.8" length="5.5"/>
        <space x="2755.00" y="1104.80" angle="90.00" width="2.8" length="5.5"/>
        <space x="2755.00" y="1101.60" angle="90.00" width="2.8" length="5.5"/>
        <space x="2755.00" y="1098.40" angle="90.00" width="2.8" length="5.5"/>
        <space x="2755.00" y="1095.20" angle="90.00" width="2.8" length="5.5"/>
        <space x="2755.00" y="1092.00" angle="90.00" width="2.8" length="5.5"/>
        <space x="2755.00" y="1088.80" angle="90.00" width="2.8" length="5.5"/>
        <space x="2755.00" y="1085.60" angle="90.00" width="2.8" length="5.5"/>
        <space x="2755.00" y="1082.40" angle="90.00" width="2.8" length="5.5"/>
        <space x="2755.00" y="1079.20" angle="90.00" width="2.8" length="5.5"/>
        <space x="2755.00" y="1076.00" angle="90.00" width="2.8" length="5.5"/>
        <space x="2755.00" y="1072.80" angle="90.00" width="2.8" length="5.5"/>
        <space x="2755.00" y="1069.60" angle="90.00" width="2.8" length="5.5"/>
    </parkingArea>
    <poly id="floor_off_street_3" color="40,40,40" fill="true" layer="0" shape="1612.00,65.00 1655.00,65.00 1655.00,135.00 1612.00,135.00"/>
    <poly id="driveway_off_street_3" color="40,40,40" fill="true" layer="1" shape="1605.00,96.00 1612.00,96.00 1612.00,104.00 1605.00,104.00"/>
    <poly id="wall_off_street_3" color="200,200,200" fill="false" lineWidth="2" layer="2" shape="1612.00,96.00 1612.00,65.00 1655.00,65.00 1655.00,135.00 1612.00,135.00 1612.00,104.00"/>
    <parkingArea id="off_street_3" lane="I0I1_0" startPos="98.5" endPos="101.5" roadsideCapacity="0" onRoad="false">
        <space x="1622.00" y="69.60" angle="90.00" width="2.8" length="5.5"/>
        <space x="1622.00" y="72.80" angle="90.00" width="2.8" length="5.5"/>
        <space x="1622.00" y="76.00" angle="90.00" width="2.8" length="5.5"/>
        <space x="1622.00" y="79.20" angle="90.00" width="2.8" length="5.5"/>
        <space x="1622.00" y="82.40" angle="90.00" width="2.8" length="5.5"/>
        <space x="1622.00" y="85.60" angle="90.00" width="2.8" length="5.5"/>
        <space x="1622.00" y="88.80" angle="90.00" width="2.8" length="5.5"/>
        <space x="1622.00" y="92.00" angle="90.00" width="2.8" length="5.5"/>
        <space x="1622.00" y="95.20" angle="90.00" width="2.8" length="5.5"/>
        <space x="1622.00" y="104.80" angle="90.00" width="2.8" length="5.5"/>
        <space x="1622.00" y="108.00" angle="90.00" width="2.8" length="5.5"/>
        <space x="1622.00" y="111.20" angle="90.00" width="2.8" length="5.5"/>
        <space x="1622.00" y="114.40" angle="90.00" width="2.8" length="5.5"/>
        <space x="1622.00" y="117.60" angle="90.00" width="2.8" length="5.5"/>
        <space x="1622.00" y="120.80" angle="90.00" width="2.8" length="5.5"/>
        <space x="1622.00" y="124.00" angle="90.00" width="2.8" length="5.5"/>
        <space x="1622.00" y="127.20" angle="90.00" width="2.8" length="5.5"/>
        <space x="1622.00" y="130.40" angle="90.00" width="2.8" length="5.5"/>
        <space x="1645.00" y="69.60" angle="270.00" width="2.8" length="5.5"/>
        <space x="1645.00" y="72.80" angle="270.00" width="2.8" length="5.5"/>
        <space x="1645.00" y="76.00" angle="270.00" width="2.8" length="5.5"/>
        <space x="1645.00" y="79.20" angle="270.00" width="2.8" length="5.5"/>
        <space x="1645.00" y="82.40" angle="270.00" width="2.8" length="5.5"/>
        <space x="1645.00" y="85.60" angle="270.00" width="2.8" length="5.5"/>
        <space x="1645.00" y="88.80" angle="270.00" width="2.8" length="5.5"/>
        <space x="1645.00" y="92.00" angle="270.00" width="2.8" length="5.5"/>
        <space x="1645.00" y="95.20" angle="270.00" width="2.8" length="5.5"/>
        <space x="1645.00" y="98.40" angle="270.00" width="2.8" length="5.5"/>
        <space x="1645.00" y="101.60" angle="270.00" width="2.8" length="5.5"/>
        <space x="1645.00" y="104.80" angle="270.00" width="2.8" length="5.5"/>
        <space x="1645.00" y="108.00" angle="270.00" width="2.8" length="5.5"/>
        <space x="1645.00" y="111.20" angle="270.00" width="2.8" length="5.5"/>
        <space x="1645.00" y="114.40" angle="270.00" width="2.8" length="5.5"/>
        <space x="1645.00" y="117.60" angle="270.00" width="2.8" length="5.5"/>
        <space x="1645.00" y="120.80" angle="270.00" width="2.8" length="5.5"/>
        <space x="1645.00" y="124.00" angle="270.00" width="2.8" length="5.5"/>
        <space x="1645.00" y="127.20" angle="270.00" width="2.8" length="5.5"/>
        <space x="1645.00" y="130.40" angle="270.00" width="2.8" length="5.5"/>
    </parkingArea>
    <poly id="floor_off_street_4" color="40,40,40" fill="true" layer="0" shape="2265.00,2388.00 2265.00,2345.00 2335.00,2345.00 2335.00,2388.00"/>
    <poly id="driveway_off_street_4" color="40,40,40" fill="true" layer="1" shape="2296.00,2395.00 2296.00,2388.00 2304.00,2388.00 2304.00,2395.00"/>
    <poly id="wall_off_street_4" color="200,200,200" fill="false" lineWidth="2" layer="2" shape="2296.00,2388.00 2265.00,2388.00 2265.00,2345.00 2335.00,2345.00 2335.00,2388.00 2304.00,2388.00"/>
    <parkingArea id="off_street_4" lane="L12M12_0" startPos="98.5" endPos="101.5" roadsideCapacity="0" onRoad="false">
        <space x="2269.60" y="2378.00" angle="180.00" width="2.8" length="5.5"/>
        <space x="2272.80" y="2378.00" angle="180.00" width="2.8" length="5.5"/>
        <space x="2276.00" y="2378.00" angle="180.00" width="2.8" length="5.5"/>
        <space x="2279.20" y="2378.00" angle="180.00" width="2.8" length="5.5"/>
        <space x="2282.40" y="2378.00" angle="180.00" width="2.8" length="5.5"/>
        <space x="2285.60" y="2378.00" angle="180.00" width="2.8" length="5.5"/>
        <space x="2288.80" y="2378.00" angle="180.00" width="2.8" length="5.5"/>
        <space x="2292.00" y="2378.00" angle="180.00" width="2.8" length="5.5"/>
        <space x="2295.20" y="2378.00" angle="180.00" width="2.8" length="5.5"/>
        <space x="2304.80" y="2378.00" angle="180.00" width="2.8" length="5.5"/>
        <space x="2308.00" y="2378.00" angle="180.00" width="2.8" length="5.5"/>
        <space x="2311.20" y="2378.00" angle="180.00" width="2.8" length="5.5"/>
        <space x="2314.40" y="2378.00" angle="180.00" width="2.8" length="5.5"/>
        <space x="2317.60" y="2378.00" angle="180.00" width="2.8" length="5.5"/>
        <space x="2320.80" y="2378.00" angle="180.00" width="2.8" length="5.5"/>
        <space x="2324.00" y="2378.00" angle="180.00" width="2.8" length="5.5"/>
        <space x="2327.20" y="2378.00" angle="180.00" width="2.8" length="5.5"/>
        <space x="2330.40" y="2378.00" angle="180.00" width="2.8" length="5.5"/>
        <space x="2269.60" y="2355.00" angle="0.00" width="2.8" length="5.5"/>
        <space x="2272.80" y="2355.00" angle="0.00" width="2.8" length="5.5"/>
        <space x="2276.00" y="2355.00" angle="0.00" width="2.8" length="5.5"/>
        <space x="2279.20" y="2355.00" angle="0.00" width="2.8" length="5.5"/>
        <space x="2282.40" y="2355.00" angle="0.00" width="2.8" length="5.5"/>
        <space x="2285.60" y="2355.00" angle="0.00" width="2.8" length="5.5"/>
        <space x="2288.80" y="2355.00" angle="0.00" width="2.8" length="5.5"/>
        <space x="2292.00" y="2355.00" angle="0.00" width="2.8" length="5.5"/>
        <space x="2295.20" y="2355.00" angle="0.00" width="2.8" length="5.5"/>
        <space x="2298.40" y="2355.00" angle="0.00" width="2.8" length="5.5"/>
        <space x="2301.60" y="2355.00" angle="0.00" width="2.8" length="5.5"/>
        <space x="2304.80" y="2355.00" angle="0.00" width="2.8" length="5.5"/>
        <space x="2308.00" y="2355.00" angle="0.00" width="2.8" length="5.5"/>
        <space x="2311.20" y="2355.00" angle="0.00" width="2.8" length="5.5"/>
        <space x="2314.40" y="2355.00" angle="0.00" width="2.8" length="5.5"/>
        <space x="2317.60" y="2355.00" angle="0.00" width="2.8" length="5.5"/>
        <space x="2320.80" y="2355.00" angle="0.00" width="2.8" length="5.5"/>
        <space x="2324.00" y="2355.00" angle="0.00" width="2.8" length="5.5"/>
        <space x="2327.20" y="2355.00" angle="0.00" width="2.8" length="5.5"/>
        <space x="2330.40" y="2355.00" angle="0.00" width="2.8" length="5.5"/>
    </parkingArea>
    <poly id="floor_off_street_5" color="40,40,40" fill="true" layer="0" shape="788.00,735.00 745.00,735.00 745.00,665.00 788.00,665.00"/>
    <poly id="driveway_off_street_5" color="40,40,40" fill="true" layer="1" shape="795.00,704.00 788.00,704.00 788.00,696.00 795.00,696.00"/>
    <poly id="wall_off_street_5" color="200,200,200" fill="false" lineWidth="2" layer="2" shape="788.00,704.00 788.00,735.00 745.00,735.00 745.00,665.00 788.00,665.00 788.00,696.00"/>
    <parkingArea id="off_street_5" lane="E4E3_0" startPos="98.5" endPos="101.5" roadsideCapacity="0" onRoad="false">
        <space x="778.00" y="730.40" angle="270.00" width="2.8" length="5.5"/>
        <space x="778.00" y="727.20" angle="270.00" width="2.8" length="5.5"/>
        <space x="778.00" y="724.00" angle="270.00" width="2.8" length="5.5"/>
        <space x="778.00" y="720.80" angle="270.00" width="2.8" length="5.5"/>
        <space x="778.00" y="717.60" angle="270.00" width="2.8" length="5.5"/>
        <space x="778.00" y="714.40" angle="270.00" width="2.8" length="5.5"/>
        <space x="778.00" y="711.20" angle="270.00" width="2.8" length="5.5"/>
        <space x="778.00" y="708.00" angle="270.00" width="2.8" length="5.5"/>
        <space x="778.00" y="704.80" angle="270.00" width="2.8" length="5.5"/>
        <space x="778.00" y="695.20" angle="270.00" width="2.8" length="5.5"/>
        <space x="778.00" y="692.00" angle="270.00" width="2.8" length="5.5"/>
        <space x="778.00" y="688.80" angle="270.00" width="2.8" length="5.5"/>
        <space x="778.00" y="685.60" angle="270.00" width="2.8" length="5.5"/>
        <space x="778.00" y="682.40" angle="270.00" width="2.8" length="5.5"/>
        <space x="778.00" y="679.20" angle="270.00" width="2.8" length="5.5"/>
        <space x="778.00" y="676.00" angle="270.00" width="2.8" length="5.5"/>
        <space x="778.00" y="672.80" angle="270.00" width="2.8" length="5.5"/>
        <space x="778.00" y="669.60" angle="270.00" width="2.8" length="5.5"/>
        <space x="755.00" y="730.40" angle="90.00" width="2.8" length="5.5"/>
        <space x="755.00" y="727.20" angle="90.00" width="2.8" length="5.5"/>
        <space x="755.00" y="724.00" angle="90.00" width="2.8" length="5.5"/>
        <space x="755.00" y="720.80" angle="90.00" width="2.8" length="5.5"/>
        <space x="755.00" y="717.60" angle="90.00" width="2.8" length="5.5"/>
        <space x="755.00" y="714.40" angle="90.00" width="2.8" length="5.5"/>
        <space x="755.00" y="711.20" angle="90.00" width="2.8" length="5.5"/>
        <space x="755.00" y="708.00" angle="90.00" width="2.8" length="5.5"/>
        <space x="755.00" y="704.80" angle="90.00" width="2.8" length="5.5"/>
        <space x="755.00" y="701.60" angle="90.00" width="2.8" length="5.5"/>
        <space x="755.00" y="698.40" angle="90.00" width="2.8" length="5.5"/>
        <space x="755.00" y="695.20" angle="90.00" width="2.8" length="5.5"/>
        <space x="755.00" y="692.00" angle="90.00" width="2.8" length="5.5"/>
        <space x="755.00" y="688.80" angle="90.00" width="2.8" length="5.5"/>
        <space x="755.00" y="685.60" angle="90.00" width="2.8" length="5.5"/>
        <space x="755.00" y="682.40" angle="90.00" width="2.8" length="5.5"/>
        <space x="755.00" y="679.20" angle="90.00" width="2.8" length="5.5"/>
        <space x="755.00" y="676.00" angle="90.00" width="2.8" length="5.5"/>
        <space x="755.00" y="672.80" angle="90.00" width="2.8" length="5.5"/>
        <space x="755.00" y="669.60" angle="90.00" width="2.8" length="5.5"/>
    </parkingArea>
    <poly id="floor_off_street_6" color="40,40,40" fill="true" layer="0" shape="1412.00,465.00 1455.00,465.00 1455.00,535.00 1412.00,535.00"/>
    <poly id="driveway_off_street_6" color="40,40,40" fill="true" layer="1" shape="1405.00,496.00 1412.00,496.00 1412.00,504.00 1405.00,504.00"/>
    <poly id="wall_off_street_6" color="200,200,200" fill="false" lineWidth="2" layer="2" shape="1412.00,496.00 1412.00,465.00 1455.00,465.00 1455.00,535.00 1412.00,535.00 1412.00,504.00"/>
    <parkingArea id="off_street_6" lane="H2H3_0" startPos="98.5" endPos="101.5" roadsideCapacity="0" onRoad="false">
        <space x="1422.00" y="469.60" angle="90.00" width="2.8" length="5.5"/>
        <space x="1422.00" y="472.80" angle="90.00" width="2.8" length="5.5"/>
        <space x="1422.00" y="476.00" angle="90.00" width="2.8" length="5.5"/>
        <space x="1422.00" y="479.20" angle="90.00" width="2.8" length="5.5"/>
        <space x="1422.00" y="482.40" angle="90.00" width="2.8" length="5.5"/>
        <space x="1422.00" y="485.60" angle="90.00" width="2.8" length="5.5"/>
        <space x="1422.00" y="488.80" angle="90.00" width="2.8" length="5.5"/>
        <space x="1422.00" y="492.00" angle="90.00" width="2.8" length="5.5"/>
        <space x="1422.00" y="495.20" angle="90.00" width="2.8" length="5.5"/>
        <space x="1422.00" y="504.80" angle="90.00" width="2.8" length="5.5"/>
        <space x="1422.00" y="508.00" angle="90.00" width="2.8" length="5.5"/>
        <space x="1422.00" y="511.20" angle="90.00" width="2.8" length="5.5"/>
        <space x="1422.00" y="514.40" angle="90.00" width="2.8" length="5.5"/>
        <space x="1422.00" y="517.60" angle="90.00" width="2.8" length="5.5"/>
        <space x="1422.00" y="520.80" angle="90.00" width="2.8" length="5.5"/>
        <space x="1422.00" y="524.00" angle="90.00" width="2.8" length="5.5"/>
        <space x="1422.00" y="527.20" angle="90.00" width="2.8" length="5.5"/>
        <space x="1422.00" y="530.40" angle="90.00" width="2.8" length="5.5"/>
        <space x="1445.00" y="469.60" angle="270.00" width="2.8" length="5.5"/>
        <space x="1445.00" y="472.80" angle="270.00" width="2.8" length="5.5"/>
        <space x="1445.00" y="476.00" angle="270.00" width="2.8" length="5.5"/>
        <space x="1445.00" y="479.20" angle="270.00" width="2.8" length="5.5"/>
        <space x="1445.00" y="482.40" angle="270.00" width="2.8" length="5.5"/>
        <space x="1445.00" y="485.60" angle="270.00" width="2.8" length="5.5"/>
        <space x="1445.00" y="488.80" angle="270.00" width="2.8" length="5.5"/>
        <space x="1445.00" y="492.00" angle="270.00" width="2.8" length="5.5"/>
        <space x="1445.00" y="495.20" angle="270.00" width="2.8" length="5.5"/>
        <space x="1445.00" y="498.40" angle="270.00" width="2.8" length="5.5"/>
        <space x="1445.00" y="501.60" angle="270.00" width="2.8" length="5.5"/>
        <space x="1445.00" y="504.80" angle="270.00" width="2.8" length="5.5"/>
        <space x="1445.00" y="508.00" angle="270.00" width="2.8" length="5.5"/>
        <space x="1445.00" y="511.20" angle="270.00" width="2.8" length="5.5"/>
        <space x="1445.00" y="514.40" angle="270.00" width="2.8" length="5.5"/>
        <space x="1445.00" y="517.60" angle="270.00" width="2.8" length="5.5"/>
        <space x="1445.00" y="520.80" angle="270.00" width="2.8" length="5.5"/>
        <space x="1445.00" y="524.00" angle="270.00" width="2.8" length="5.5"/>
        <space x="1445.00" y="527.20" angle="270.00" width="2.8" length="5.5"/>
        <space x="1445.00" y="530.40" angle="270.00" width="2.8" length="5.5"/>
    </parkingArea>
    <poly id="floor_off_street_7" color="40,40,40" fill="true" layer="0" shape="2335.00,1812.00 2335.00,1855.00 2265.00,1855.00 2265.00,1812.00"/>
    <poly id="driveway_off_street_7" color="40,40,40" fill="true" layer="1" shape="2304.00,1805.00 2304.00,1812.00 2296.00,1812.00 2296.00,1805.00"/>
    <poly id="wall_off_street_7" color="200,200,200" fill="false" lineWidth="2" layer="2" shape="2304.00,1812.00 2335.00,1812.00 2335.00,1855.00 2265.00,1855.00 2265.00,1812.00 2296.00,1812.00"/>
    <parkingArea id="off_street_7" lane="M9L9_0" startPos="98.5" endPos="101.5" roadsideCapacity="0" onRoad="false">
        <space x="2330.40" y="1822.00" angle="0.00" width="2.8" length="5.5"/>
        <space x="2327.20" y="1822.00" angle="0.00" width="2.8" length="5.5"/>
        <space x="2324.00" y="1822.00" angle="0.00" width="2.8" length="5.5"/>
        <space x="2320.80" y="1822.00" angle="0.00" width="2.8" length="5.5"/>
        <space x="2317.60" y="1822.00" angle="0.00" width="2.8" length="5.5"/>
        <space x="2314.40" y="1822.00" angle="0.00" width="2.8" length="5.5"/>
        <space x="2311.20" y="1822.00" angle="0.00" width="2.8" length="5.5"/>
        <space x="2308.00" y="1822.00" angle="0.00" width="2.8" length="5.5"/>
        <space x="2304.80" y="1822.00" angle="0.00" width="2.8" length="5.5"/>
        <space x="2295.20" y="1822.00" angle="0.00" width="2.8" length="5.5"/>
        <space x="2292.00" y="1822.00" angle="0.00" width="2.8" length="5.5"/>
        <space x="2288.80" y="1822.00" angle="0.00" width="2.8" length="5.5"/>
        <space x="2285.60" y="1822.00" angle="0.00" width="2.8" length="5.5"/>
        <space x="2282.40" y="1822.00" angle="0.00" width="2.8" length="5.5"/>
        <space x="2279.20" y="1822.00" angle="0.00" width="2.8" length="5.5"/>
        <space x="2276.00" y="1822.00" angle="0.00" width="2.8" length="5.5"/>
        <space x="2272.80" y="1822.00" angle="0.00" width="2.8" length="5.5"/>
        <space x="2269.60" y="1822.00" angle="0.00" width="2.8" length="5.5"/>
        <space x="2330.40" y="1845.00" angle="180.00" width="2.8" length="5.5"/>
        <space x="2327.20" y="1845.00" angle="180.00" width="2.8" length="5.5"/>
        <space x="2324.00" y="1845.00" angle="180.00" width="2.8" length="5.5"/>
        <space x="2320.80" y="1845.00" angle="180.00" width="2.8" length="5.5"/>
        <space x="2317.60" y="1845.00" angle="180.00" width="2.8" length="5.5"/>
        <space x="2314.40" y="1845.00" angle="180.00" width="2.8" length="5.5"/>
        <space x="2311.20" y="1845.00" angle="180.00" width="2.8" length="5.5"/>
        <space x="2308.00" y="1845.00" angle="180.00" width="2.8" length="5.5"/>
        <space x="2304.80" y="1845.00" angle="180.00" width="2.8" length="5.5"/>
        <space x="2301.60" y="1845.00" angle="180.00" width="2.8" length="5.5"/>
        <space x="2298.40" y="1845.00" angle="180.00" width="2.8" length="5.5"/>
        <space x="2295.20" y="1845.00" angle="180.00" width="2.8" length="5.5"/>
        <space x="2292.00" y="1845.00" angle="180.00" width="2.8" length="5.5"/>
        <space x="2288.80" y="1845.00" angle="180.00" width="2.8" length="5.5"/>
        <space x="2285.60" y="1845.00" angle="180.00" width="2.8" length="5.5"/>
        <space x="2282.40" y="1845.00" angle="180.00" width="2.8" length="5.5"/>
        <space x="2279.20" y="1845.00" angle="180.00" width="2.8" length="5.5"/>
        <space x="2276.00" y="1845.00" angle="180.00" width="2.8" length="5.5"/>
        <space x="2272.80" y="1845.00" angle="180.00" width="2.8" length="5.5"/>
        <space x="2269.60" y="1845.00" angle="180.00" width="2.8" length="5.5"/>
    </parkingArea>
    <poly id="floor_off_street_8" color="40,40,40" fill="true" layer="0" shape="588.00,1935.00 545.00,1935.00 545.00,1865.00 588.00,1865.00"/>
    <poly id="driveway_off_street_8" color="40,40,40" fill="true" layer="1" shape="595.00,1904.00 588.00,1904.00 588.00,1896.00 595.00,1896.00"/>
    <poly id="wall_off_street_8" color="200,200,200" fill="false" lineWidth="2" layer="2" shape="588.00,1904.00 588.00,1935.00 545.00,1935.00 545.00,1865.00 588.00,1865.00 588.00,1896.00"/>
    <parkingArea id="off_street_8" lane="D10D9_0" startPos="98.5" endPos="101.5" roadsideCapacity="0" onRoad="false">
        <space x="578.00" y="1930.40" angle="270.00" width="2.8" length="5.5"/>
        <space x="578.00" y="1927.20" angle="270.00" width="2.8" length="5.5"/>