<?xml version="1.0" encoding="UTF-8"?>
<additional>
    <poly id="floor_off_street_0" color="40,40,40" fill="true" layer="0" shape="2335.00,2412.00 2335.00,2455.00 2265.00,2455.00 2265.00,2412.00"/>
    <poly id="driveway_off_street_0" color="40,40,40" fill="true" layer="1" shape="2304.00,2405.00 2304.00,2412.00 2296.00,2412.00 2296.00,2405.00"/>
    <poly id="wall_off_street_0" color="200,200,200" fill="false" lineWidth="2" layer="2" shape="2304.00,2412.00 2335.00,2412.00 2335.00,2455.00 2265.00,2455.00 2265.00,2412.00 2296.00,2412.00"/>
    <parkingArea id="off_street_0" lane="M12L12_0" startPos="98.5" endPos="101.5" roadsideCapacity="0" onRoad="false">
        <space x="2330.40" y="2422.00" angle="0.00" width="2.8" length="5.5"/>
        <space x="2327.20" y="2422.00" angle="0.00" width="2.8" length="5.5"/>
        <space x="2324.00" y="2422.00" angle="0.00" width="2.8" length="5.5"/>
        <space x="2320.80" y="2422.00" angle="0.00" width="2.8" length="5.5"/>
        <space x="2317.60" y="2422.00" angle="0.00" width="2.8" length="5.5"/>
        <space x="2314.40" y="2422.00" angle="0.00" width="2.8" length="5.5"/>
        <space x="2311.20" y="2422.00" angle="0.00" width="2.8" length="5.5"/>
        <space x="2308.00" y="2422.00" angle="0.00" width="2.8" length="5.5"/>
        <space x="2304.80" y="2422.00" angle="0.00" width="2.8" length="5.5"/>
        <space x="2295.20" y="2422.00" angle="0.00" width="2.8" length="5.5"/>
        <space x="2292.00" y="2422.00" angle="0.00" width="2.8" length="5.5"/>
        <space x="2288.80" y="2422.00" angle="0.00" width="2.8" length="5.5"/>
        <space x="2285.60" y="2422.00" angle="0.00" width="2.8" length="5.5"/>
        <space x="2282.40" y="2422.00" angle="0.00" width="2.8" length="5.5"/>
        <space x="2279.20" y="2422.00" angle="0.00" width="2.8" length="5.5"/>
        <space x="2276.00" y="2422.00" angle="0.00" width="2.8" length="5.5"/>
        <space x="2272.80" y="2422.00" angle="0.00" width="2.8" length="5.5"/>
        <space x="2269.60" y="2422.00" angle="0.00" width="2.8" length="5.5"/>
        <space x="2330.40" y="2445.00" angle="180.00" width="2.8" length="5.5"/>
        <space x="2327.20" y="2445.00" angle="180.00" width="2.8" length="5.5"/>
        <space x="2324.00" y="2445.00" angle="180.00" width="2.8" length="5.5"/>
        <space x="2320.80" y="2445.00" angle="180.00" width="2.8" length="5.5"/>
        <space x="2317.60" y="2445.00" angle="180.00" width="2.8" length="5.5"/>
        <space x="2314.40" y="2445.00" angle="180.00" width="2.8" length="5.5"/>
        <space x="2311.20" y="2445.00" angle="180.00" width="2.8" length="5.5"/>
        <space x="2308.00" y="2445.00" angle="180.00" width="2.8" length="5.5"/>
        <space x="2304.80" y="2445.00" angle="180.00" width="2.8" length="5.5"/>
        <space x="2301.60" y="2445.00" angle="180.00" width="2.8" length="5.5"/>
        <space x="2298.40" y="2445.00" angle="180.00" width="2.8" length="5.5"/>
        <space x="2295.20" y="2445.00" angle="180.00" width="2.8" length="5.5"/>
        <space x="2292.00" y="2445.00" angle="180.00" width="2.8" length="5.5"/>
        <space x="2288.80" y="2445.00" angle="180.00" width="2.8" length="5.5"/>
        <space x="2285.60" y="2445.00" angle="180.00" width="2.8" length="5.5"/>
        <space x="2282.40" y="2445.00" angle="180.00" width="2.8" length="5.5"/>
        <space x="2279.20" y="2445.00" angle="180.00" width="2.8" length="5.5"/>
        <space x="2276.00" y="2445.00" angle="180.00" width="2.8" length="5.5"/>
        <space x="2272.80" y="2445.00" angle="180.00" width="2.8" length="5.5"/>
        <space x="2269.60" y="2445.00" angle="180.00" width="2.8" length="5.5"/>
    </parkingArea>
    <poly id="floor_off_street_1" color="40,40,40" fill="true" layer="0" shape="2665.00,1588.00 2665.00,1545.00 2735.00,1545.00 2735.00,1588.00"/>
    <poly id="driveway_off_street_1" color="40,40,40" fill="true" layer="1" shape="2696.00,1595.00 2696.00,1588.00 2704.00,1588.00 2704.00,1595.00"/>
    <poly id="wall_off_street_1" color="200,200,200" fill="false" lineWidth="2" layer="2" shape="2696.00,1588.00 2665.00,1588.00 2665.00,1545.00 2735.00,1545.00 2735.00,1588.00 2704.00,1588.00"/>
    <parkingArea id="off_street_1" lane="N8O8_0" startPos="98.5" endPos="101.5" roadsideCapacity="0" onRoad="false">
        <space x="2669.60" y="1578.00" angle="180.00" width="2.8" length="5.5"/>
        <space x="2672.80" y="1578.00" angle="180.00" width="2.8" length="5.5"/>
        <space x="2676.00" y="1578.00" angle="180.00" width="2.8" length="5.5"/>
        <space x="2679.20" y="1578.00" angle="180.00" width="2.8" length="5.5"/>
        <space x="2682.40" y="1578.00" angle="180.00" width="2.8" length="5.5"/>
        <space x="2685.60" y="1578.00" angle="180.00" width="2.8" length="5.5"/>
        <space x="2688.80" y="1578.00" angle="180.00" width="2.8" length="5.5"/>
        <space x="2692.00" y="1578.00" angle="180.00" width="2.8" length="5.5"/>
        <space x="2695.20" y="1578.00" angle="180.00" width="2.8" length="5.5"/>
        <space x="2704.80" y="1578.00" angle="180.00" width="2.8" length="5.5"/>
        <space x="2708.00" y="1578.00" angle="180.00" width="2.8" length="5.5"/>
        <space x="2711.20" y="1578.00" angle="180.00" width="2.8" length="5.5"/>
        <space x="2714.40" y="1578.00" angle="180.00" width="2.8" length="5.5"/>
        <space x="2717.60" y="1578.00" angle="180.00" width="2.8" length="5.5"/>
        <space x="2720.80" y="1578.00" angle="180.00" width="2.8" length="5.5"/>
        <space x="2724.00" y="1578.00" angle="180.00" width="2.8" length="5.5"/>
        <space x="2727.20" y="1578.00" angle="180.00" width="2.8" length="5.5"/>
        <space x="2730.40" y="1578.00" angle="180.00" width="2.8" length="5.5"/>
        <space x="2669.60" y="1555.00" angle="0.00" width="2.8" length="5.5"/>
        <space x="2672.80" y="1555.00" angle="0.00" width="2.8" length="5.5"/>
        <space x="2676.00" y="1555.00" angle="0.00" width="2.8" length="5.5"/>
        <space x="2679.20" y="1555.00" angle="0.00" width="2.8" length="5.5"/>
        <space x="2682.40" y="1555.00" angle="0.00" width="2.8" length="5.5"/>
        <space x="2685.60" y="1555.00" angle="0.00" width="2.8" length="5.5"/>
        <space x="2688.80" y="1555.00" angle="0.00" width="2.8" length="5.5"/>
        <space x="2692.00" y="1555.00" angle="0.00" width="2.8" length="5.5"/>
        <space x="2695.20" y="1555.00" angle="0.00" width="2.8" length="5.5"/>
        <space x="2698.40" y="1555.00" angle="0.00" width="2.8" length="5.5"/>
        <space x="2701.60" y="1555.00" angle="0.00" width="2.8" length="5.5"/>
        <space x="2704.80" y="1555.00" angle="0.00" width="2.8" length="5.5"/>
        <space x="2708.00" y="1555.00" angle="0.00" width="2.8" length="5.5"/>
        <space x="2711.20" y="1555.00" angle="0.00" width="2.8" length="5.5"/>
        <space x="2714.40" y="1555.00" angle="0.00" width="2.8" length="5.5"/>
        <space x="2717.60" y="1555.00" angle="0.00" width="2.8" length="5.5"/>
        <space x="2720.80" y="1555.00" angle="0.00" width="2.8" length="5.5"/>
        <space x="2724.00" y="1555.00" angle="0.00" width="2.8" length="5.5"/>
        <space x="2727.20" y="1555.00" angle="0.00" width="2.8" length="5.5"/>
        <space x="2730.40" y="1555.00" angle="0.00" width="2.8" length="5.5"/>
    </parkingArea>
    <poly id="floor_off_street_2" color="40,40,40" fill="true" layer="0" shape="2135.00,1612.00 2135.00,1655.00 2065.00,1655.00 2065.00,1612.00"/>
    <poly id="driveway_off_street_2" color="40,40,40" fill="true" layer="1" shape="2104.00,1605.00 2104.00,1612.00 2096.00,1612.00 2096.00,1605.00"/>
    <poly id="wall_off_street_2" color="200,200,200" fill="false" lineWidth="2" layer="2" shape="2104.00,1612.00 2135.00,1612.00 2135.00,1655.00 2065.00,1655.00 2065.00,1612.00 2096.00,1612.00"/>
    <parkingArea id="off_street_2" lane="L8K8_0" startPos="98.5" endPos="101.5" roadsideCapacity="0" onRoad="false">
        <space x="2130.40" y="1622.00" angle="0.00" width="2.8" length="5.5"/>
        <space x="2127.20" y="1622.00" angle="0.00" width="2.8" length="5.5"/>
        <space x="2124.00" y="1622.00" angle="0.00" width="2.8" length="5.5"/>
        <space x="2120.80" y="1622.00" angle="0.00" width="2.8" length="5.5"/>
        <space x="2117.60" y="1622.00" angle="0.00" width="2.8" length="5.5"/>
        <space x="2114.40" y="1622.00" angle="0.00" width="2.8" length="5.5"/>
        <space x="2111.20" y="1622.00" angle="0.00" width="2.8" length="5.5"/>
        <space x="2108.00" y="1622.00" angle="0.00" width="2.8" length="5.5"/>
        <space x="2104.80" y="1622.00" angle="0.00" width="2.8" length="5.5"/>
        <space x="2095.20" y="1622.00" angle="0.00" width="2.8" length="5.5"/>
        <space x="2092.00" y="1622.00" angle="0.00" width="2.8" length="5.5"/>
        <space x="2088.80" y="1622.00" angle="0.00" width="2.8" length="5.5"/>
        <space x="2085.60" y="1622.00" angle="0.00" width="2.8" length="5.5"/>
        <space x="2082.40" y="1622.00" angle="0.00" width="2.8" length="5.5"/>
        <space x="2079.20" y="1622.00" angle="0.00" width="2.8" length="5.5"/>
        <space x="2076.00" y="1622.00" angle="0.00" width="2.8" length="5.5"/>
        <space x="2072.80" y="1622.00" angle="0.00" width="2.8" length="5.5"/>
        <space x="2069.60" y="1622.00" angle="0.00" width="2.8" length="5.5"/>
        <space x="2130.40" y="1645.00" angle="180.00" width="2.8" length="5.5"/>
        <space x="2127.20" y="1645.00" angle="180.00" width="2.8" length="5.5"/>
        <space x="2124.00" y="1645.00" angle="180.00" width="2.8" length="5.5"/>
        <space x="2120.80" y="1645.00" angle="180.00" width="2.8" length="5.5"/>
        <space x="2117.60" y="1645.00" angle="180.00" width="2.8" length="5.5"/>
        <space x="2114.40" y="1645.00" angle="180.00" width="2.8" length="5.5"/>
        <space x="2111.20" y="1645.00" angle="180.00" width="2.8" length="5.5"/>
        <space x="2108.00" y="1645.00" angle="180.00" width="2.8" length="5.5"/>
        <space x="2104.80" y="1645.00" angle="180.00" width="2.8" length="5.5"/>
        <space x="2101.60" y="1645.00" angle="180.00" width="2.8" length="5.5"/>
        <space x="2098.40" y="1645.00" angle="180.00" width="2.8" length="5.5"/>
        <space x="2095.20" y="1645.00" angle="180.00" width="2.8" length="5.5"/>
        <space x="2092.00" y="1645.00" angle="180.00" width="2.8" length="5.5"/>
        <space x="2088.80" y="1645.00" angle="180.00" width="2.8" length="5.5"/>
        <space x="2085.60" y="1645.00" angle="180.00" width="2.8" length="5.5"/>
        <space x="2082.40" y="1645.00" angle="180.00" width="2.8" length="5.5"/>
        <space x="2079.20" y="1645.00" angle="180.00" width="2.8" length="5.5"/>
        <space x="2076.00" y="1645.00" angle="180.00" width="2.8" length="5.5"/>
        <space x="2072.80" y="1645.00" angle="180.00" width="2.8" length="5.5"/>
        <space x="2069.60" y="1645.00" angle="180.00" width="2.8" length="5.5"/>
    </parkingArea>
    <poly id="floor_off_street_3" color="40,40,40" fill="true" layer="0" shape="465.00,-12.00 465.00,-55.00 535.00,-55.00 535.00,-12.00"/>
    <poly id="driveway_off_street_3" color="40,40,40" fill="true" layer="1" shape="496.00,-5.00 496.00,-12.00 504.00,-12.00 504.00,-5.00"/>
    <poly id="wall_off_street_3" color="200,200,200" fill="false" lineWidth="2" layer="2" shape="496.00,-12.00 465.00,-12.00 465.00,-55.00 535.00,-55.00 535.00,-12.00 504.00,-12.00"/>
    <parkingArea id="off_street_3" lane="C0D0_0" startPos="98.5" endPos="101.5" roadsideCapacity="0" onRoad="false">
        <space x="469.60" y="-22.00" angle="180.00" width="2.8" length="5.5"/>
        <space x="472.80" y="-22.00" angle="180.00" width="2.8" length="5.5"/>
        <space x="476.00" y="-22.00" angle="180.00" width="2.8" length="5.5"/>
        <space x="479.20" y="-22.00" angle="180.00" width="2.8" length="5.5"/>
        <space x="482.40" y="-22.00" angle="180.00" width="2.8" length="5.5"/>
        <space x="485.60" y="-22.00" angle="180.00" width="2.8" length="5.5"/>
        <space x="488.80" y="-22.00" angle="180.00" width="2.8" length="5.5"/>
        <space x="492.00" y="-22.00" angle="180.00" width="2.8" length="5.5"/>
        <space x="495.20" y="-22.00" angle="180.00" width="2.8" length="5.5"/>
        <space x="504.80" y="-22.00" angle="180.00" width="2.8" length="5.5"/>
        <space x="508.00" y="-22.00" angle="180.00" width="2.8" length="5.5"/>
        <space x="511.20" y="-22.00" angle="180.00" width="2.8" length="5.5"/>
        <space x="514.40" y="-22.00" angle="180.00" width="2.8" length="5.5"/>
        <space x="517.60" y="-22.00" angle="180.00" width="2.8" length="5.5"/>
        <space x="520.80" y="-22.00" angle="180.00" width="2.8" length="5.5"/>
        <space x="524.00" y="-22.00" angle="180.00" width="2.8" length="5.5"/>
        <space x="527.20" y="-22.00" angle="180.00" width="2.8" length="5.5"/>
        <space x="530.40" y="-22.00" angle="180.00" width="2.8" length="5.5"/>
        <space x="469.60" y="-45.00" angle="0.00" width="2.8" length="5.5"/>
        <space x="472.80" y="-45.00" angle="0.00" width="2.8" length="5.5"/>
        <space x="476.00" y="-45.00" angle="0.00" width="2.8" length="5.5"/>
        <space x="479.20" y="-45.00" angle="0.00" width="2.8" length="5.5"/>
        <space x="482.40" y="-45.00" angle="0.00" width="2.8" length="5.5"/>
        <space x="485.60" y="-45.00" angle="0.00" width="2.8" length="5.5"/>
        <space x="488.80" y="-45.00" angle="0.00" width="2.8" length="5.5"/>
        <space x="492.00" y="-45.00" angle="0.00" width="2.8" length="5.5"/>
        <space x="495.20" y="-45.00" angle="0.00" width="2.8" length="5.5"/>
        <space x="498.40" y="-45.00" angle="0.00" width="2.8" length="5.5"/>
        <space x="501.60" y="-45.00" angle="0.00" width="2.8" length="5.5"/>
        <space x="504.80" y="-45.00" angle="0.00" width="2.8" length="5.5"/>
        <space x="508.00" y="-45.00" angle="0.00" width="2.8" length="5.5"/>
        <space x="511.20" y="-45.00" angle="0.00" width="2.8" length="5.5"/>
        <space x="514.40" y="-45.00" angle="0.00" width="2.8" length="5.5"/>
        <space x="517.60" y="-45.00" angle="0.00" width="2.8" length="5.5"/>
        <space x="520.80" y="-45.00" angle="0.00" width="2.8" length="5.5"/>
        <space x="524.00" y="-45.00" angle="0.00" width="2.8" length="5.5"/>
        <space x="527.20" y="-45.00" angle="0.00" width="2.8" length="5.5"/>
        <space x="530.40" y="-45.00" angle="0.00" width="2.8" length="5.5"/>
    </parkingArea>
    <poly id="floor_off_street_4" color="40,40,40" fill="true" layer="0" shape="2265.00,1388.00 2265.00,1345.00 2335.00,1345.00 2335.00,1388.00"/>
    <poly id="driveway_off_street_4" color="40,40,40" fill="true" layer="1" shape="2296.00,1395.00 2296.00,1388.00 2304.00,1388.00 2304.00,1395.00"/>
    <poly id="wall_off_street_4" color="200,200,200" fill="false" lineWidth="2" layer="2" shape="2296.00,1388.00 2265.00,1388.00 2265.00,1345.00 2335.00,1345.00 2335.00,1388.00 2304.00,1388.00"/>
    <parkingArea id="off_street_4" lane="L7M7_0" startPos="98.5" endPos="101.5" roadsideCapacity="0" onRoad="false">
        <space x="2269.60" y="1378.00" angle="180.00" width="2.8" length="5.5"/>
        <space x="2272.80" y="1378.00" angle="180.00" width="2.8" length="5.5"/>
        <space x="2276.00" y="1378.00" angle="180.00" width="2.8" length="5.5"/>
        <space x="2279.20" y="1378.00" angle="180.00" width="2.8" length="5.5"/>
        <space x="2282.40" y="1378.00" angle="180.00" width="2.8" length="5.5"/>
        <space x="2285.60" y="1378.00" angle="180.00" width="2.8" length="5.5"/>
        <space x="2288.80" y="1378.00" angle="180.00" width="2.8" length="5.5"/>
        <space x="2292.00" y="1378.00" angle="180.00" width="2.8" length="5.5"/>
        <space x="2295.20" y="1378.00" angle="180.00" width="2.8" length="5.5"/>
        <space x="2304.80" y="1378.00" angle="180.00" width="2.8" length="5.5"/>
        <space x="2308.00" y="1378.00" angle="180.00" width="2.8" length="5.5"/>
        <space x="2311.20" y="1378.00" angle="180.00" width="2.8" length="5.5"/>
        <space x="2314.40" y="1378.00" angle="180.00" width="2.8" length="5.5"/>
        <space x="2317.60" y="1378.00" angle="180.00" width="2.8" length="5.5"/>
        <space x="2320.80" y="1378.00" angle="180.00" width="2.8" length="5.5"/>
        <space x="2324.00" y="1378.00" angle="180.00" width="2.8" length="5.5"/>
        <space x="2327.20" y="1378.00" angle="180.00" width="2.8" length="5.5"/>
        <space x="2330.40" y="1378.00" angle="180.00" width="2.8" length="5.5"/>
        <space x="2269.60" y="1355.00" angle="0.00" width="2.8" length="5.5"/>
        <space x="2272.80" y="1355.00" angle="0.00" width="2.8" length="5.5"/>
        <space x="2276.00" y="1355.00" angle="0.00" width="2.8" length="5.5"/>
        <space x="2279.20" y="1355.00" angle="0.00" width="2.8" length="5.5"/>
        <space x="2282.40" y="1355.00" angle="0.00" width="2.8" length="5.5"/>
        <space x="2285.60" y="1355.00" angle="0.00" width="2.8" length="5.5"/>
        <space x="2288.80" y="1355.00" angle="0.00" width="2.8" length="5.5"/>
        <space x="2292.00" y="1355.00" angle="0.00" width="2.8" length="5.5"/>
        <space x="2295.20" y="1355.00" angle="0.00" width="2.8" length="5.5"/>
        <space x="2298.40" y="1355.00" angle="0.00" width="2.8" length="5.5"/>
        <space x="2301.60" y="1355.00" angle="0.00" width="2.8" length="5.5"/>
        <space x="2304.80" y="1355.00" angle="0.00" width="2.8" length="5.5"/>
        <space x="2308.00" y="1355.00" angle="0.00" width="2.8" length="5.5"/>
        <space x="2311.20" y="1355.00" angle="0.00" width="2.8" length="5.5"/>
        <space x="2314.40" y="1355.00" angle="0.00" width="2.8" length="5.5"/>
        <space x="2317.60" y="1355.00" angle="0.00" width="2.8" length="5.5"/>
        <space x="2320.80" y="1355.00" angle="0.00" width="2.8" length="5.5"/>
        <space x="2324.00" y="1355.00" angle="0.00" width="2.8" length="5.5"/>
        <space x="2327.20" y="1355.00" angle="0.00" width="2.8" length="5.5"/>
        <space x="2330.40" y="1355.00" angle="0.00" width="2.8" length="5.5"/>
    </parkingArea>
    <poly id="floor_off_street_5" color="40,40,40" fill="true" layer="0" shape="1788.00,935.00 1745.00,935.00 1745.00,865.00 1788.00,865.00"/>
    <poly id="driveway_off_street_5" color="40,40,40" fill="true" layer="1" shape="1795.00,904.00 1788.00,904.00 1788.00,896.00 1795.00,896.00"/>
    <poly id="wall_off_street_5" color="200,200,200" fill="false" lineWidth="2" layer="2" shape="1788.00,904.00 1788.00,935.00 1745.00,935.00 1745.00,865.00 1788.00,865.00 1788.00,896.00"/>
    <parkingArea id="off_street_5" lane="J5J4_0" startPos="98.5" endPos="101.5" roadsideCapacity="0" onRoad="false">
        <space x="1778.00" y="930.40" angle="270.00" width="2.8" length="5.5"/>
        <space x="1778.00" y="927.20" angle="270.00" width="2.8" length="5.5"/>
        <space x="1778.00" y="924.00" angle="270.00" width="2.8" length="5.5"/>
        <space x="1778.00" y="920.80" angle="270.00" width="2.8" length="5.5"/>
        <space x="1778.00" y="917.60" angle="270.00" width="2.8" length="5.5"/>
        <space x="1778.00" y="914.40" angle="270.00" width="2.8" length="5.5"/>
        <space x="1778.00" y="911.20" angle="270.00" width="2.8" length="5.5"/>
        <space x="1778.00" y="908.00" angle="270.00" width="2.8" length="5.5"/>
        <space x="1778.00" y="904.80" angle="270.00" width="2.8" length="5.5"/>
        <space x="1778.00" y="895.20" angle="270.00" width="2.8" length="5.5"/>
        <space x="1778.00" y="892.00" angle="270.00" width="2.8" length="5.5"/>
        <space x="1778.00" y="888.80" angle="270.00" width="2.8" length="5.5"/>
        <space x="1778.00" y="885.60" angle="270.00" width="2.8" length="5.5"/>
        <space x="1778.00" y="882.40" angle="270.00" width="2.8" length="5.5"/>
        <space x="1778.00" y="879.20" angle="270.00" width="2.8" length="5.5"/>
        <space x="1778.00" y="876.00" angle="270.00" width="2.8" length="5.5"/>
        <space x="1778.00" y="872.80" angle="270.00" width="2.8" length="5.5"/>
        <space x="1778.00" y="869.60" angle="270.00" width="2.8" length="5.5"/>
        <space x="1755.00" y="930.40" angle="90.00" width="2.8" length="5.5"/>
        <space x="1755.00" y="927.20" angle="90.00" width="2.8" length="5.5"/>
        <space x="1755.00" y="924.00" angle="90.00" width="2.8" length="5.5"/>
        <space x="1755.00" y="920.80" angle="90.00" width="2.8" length="5.5"/>
        <space x="1755.00" y="917.60" angle="90.00" width="2.8" length="5.5"/>
        <space x="1755.00" y="914.40" angle="90.00" width="2.8" length="5.5"/>
        <space x="1755.00" y="911.20" angle="90.00" width="2.8" length="5.5"/>
        <space x="1755.00" y="908.00" angle="90.00" width="2.8" length="5.5"/>
        <space x="1755.00" y="904.80" angle="90.00" width="2.8" length="5.5"/>
        <space x="1755.00" y="901.60" angle="90.00" width="2.8" length="5.5"/>
        <space x="1755.00" y="898.40" angle="90.00" width="2.8" length="5.5"/>
        <space x="1755.00" y="895.20" angle="90.00" width="2.8" length="5.5"/>
        <space x="1755.00" y="892.00" angle="90.00" width="2.8" length="5.5"/>
        <space x="1755.00" y="888.80" angle="90.00" width="2.8" length="5.5"/>
        <space x="1755.00" y="885.60" angle="90.00" width="2.8" length="5.5"/>
        <space x="1755.00" y="882.40" angle="90.00" width="2.8" length="5.5"/>
        <space x="1755.00" y="879.20" angle="90.00" width="2.8" length="5.5"/>
        <space x="1755.00" y="876.00" angle="90.00" width="2.8" length="5.5"/>
        <space x="1755.00" y="872.80" angle="90.00" width="2.8" length="5.5"/>
        <space x="1755.00" y="869.60" angle="90.00" width="2.8" length="5.5"/>
    </parkingArea>
    <poly id="floor_off_street_6" color="40,40,40" fill="true" layer="0" shape="135.00,212.00 135.00,255.00 65.00,255.00 65.00,212.00"/>
    <poly id="driveway_off_street_6" color="40,40,40" fill="true" layer="1" shape="104.00,205.00 104.00,212.00 96.00,212.00 96.00,205.00"/>
    <poly id="wall_off_street_6" color="200,200,200" fill="false" lineWidth="2" layer="2" shape="104.00,212.00 135.00,212.00 135.00,255.00 65.00,255.00 65.00,212.00 96.00,212.00"/>
    <parkingArea id="off_street_6" lane="B1A1_0" startPos="98.5" endPos="101.5" roadsideCapacity="0" onRoad="false">
        <space x="130.40" y="222.00" angle="0.00" width="2.8" length="5.5"/>
        <space x="127.20" y="222.00" angle="0.00" width="2.8" length="5.5"/>
        <space x="124.00" y="222.00" angle="0.00" width="2.8" length="5.5"/>
        <space x="120.80" y="222.00" angle="0.00" width="2.8" length="5.5"/>
        <space x="117.60" y="222.00" angle="0.00" width="2.8" length="5.5"/>
        <space x="114.40" y="222.00" angle="0.00" width="2.8" length="5.5"/>
        <space x="111.20" y="222.00" angle="0.00" width="2.8" length="5.5"/>
        <space x="108.00" y="222.00" angle="0.00" width="2.8" length="5.5"/>
        <space x="104.80" y="222.00" angle="0.00" width="2.8" length="5.5"/>
        <space x="95.20" y="222.00" angle="0.00" width="2.8" length="5.5"/>
        <space x="92.00" y="222.00" angle="0.00" width="2.8" length="5.5"/>
        <space x="88.80" y="222.00" angle="0.00" width="2.8" length="5.5"/>
        <space x="85.60" y="222.00" angle="0.00" width="2.8" length="5.5"/>
        <space x="82.40" y="222.00" angle="0.00" width="2.8" length="5.5"/>
        <space x="79.20" y="222.00" angle="0.00" width="2.8" length="5.5"/>
        <space x="76.00" y="222.00" angle="0.00" width="2.8" length="5.5"/>
        <space x="72.80" y="222.00" angle="0.00" width="2.8" length="5.5"/>
        <space x="69.60" y="222.00" angle="0.00" width="2.8" length="5.5"/>
        <space x="130.40" y="245.00" angle="180.00" width="2.8" length="5.5"/>
        <space x="127.20" y="245.00" angle="180.00" width="2.8" length="5.5"/>
        <space x="124.00" y="245.00" angle="180.00" width="2.8" length="5.5"/>
        <space x="120.80" y="245.00" angle="180.00" width="2.8" length="5.5"/>
        <space x="117.60" y="245.00" angle="180.00" width="2.8" length="5.5"/>
        <space x="114.40" y="245.00" angle="180.00" width="2.8" length="5.5"/>
        <space x="111.20" y="245.00" angle="180.00" width="2.8" length="5.5"/>
        <space x="108.00" y="245.00" angle="180.00" width="2.8" length="5.5"/>
        <space x="104.80" y="245.00" angle="180.00" width="2.8" length="5.5"/>
        <space x="101.60" y="245.00" angle="180.00" width="2.8" length="5.5"/>
        <space x="98.40" y="245.00" angle="180.00" width="2.8" length="5.5"/>
        <space x="95.20" y="245.00" angle="180.00" width="2.8" length="5.5"/>
        <space x="92.00" y="245.00" angle="180.00" width="2.8" length="5.5"/>
        <space x="88.80" y="245.00" angle="180.00" width="2.8" length="5.5"/>
        <space x="85.60" y="245.00" angle="180.00" width="2.8" length="5.5"/>
        <space x="82.40" y="245.00" angle="180.00" width="2.8" length="5.5"/>
        <space x="79.20" y="245.00" angle="180.00" width="2.8" length="5.5"/>
        <space x="76.00" y="245.00" angle="180.00" width="2.8" length="5.5"/>
        <space x="72.80" y="245.00" angle="180.00" width="2.8" length="5.5"/>
        <space x="69.60" y="245.00" angle="180.00" width="2.8" length="5.5"/>
    </parkingArea>
    <poly id="floor_off_street_7" color="40,40,40" fill="true" layer="0" shape="1065.00,-12.00 1065.00,-55.00 1135.00,-55.00 1135.00,-12.00"/>
    <poly id="driveway_off_street_7" color="40,40,40" fill="true" layer="1" shape="1096.00,-5.00 1096.00,-12.00 1104.00,-12.00 1104.00,-5.00"/>
    <poly id="wall_off_street_7" color="200,200,200" fill="false" lineWidth="2" layer="2" shape="1096.00,-12.00 1065.00,-12.00 1065.00,-55.00 1135.00,-55.00 1135.00,-12.00 1104.00,-12.00"/>
    <parkingArea id="off_street_7" lane="F0G0_0" startPos="98.5" endPos="101.5" roadsideCapacity="0" onRoad="false">
        <space x="1069.60" y="-22.00" angle="180.00" width="2.8" length="5.5"/>
        <space x="1072.80" y="-22.00" angle="180.00" width="2.8" length="5.5"/>
        <space x="1076.00" y="-22.00" angle="180.00" width="2.8" length="5.5"/>
        <space x="1079.20" y="-22.00" angle="180.00" width="2.8" length="5.5"/>
        <space x="1082.40" y="-22.00" angle="180.00" width="2.8" length="5.5"/>
        <space x="1085.60" y="-22.00" angle="180.00" width="2.8" length="5.5"/>
        <space x="1088.80" y="-22.00" angle="180.00" width="2.8" length="5.5"/>
        <space x="1092.00" y="-22.00" angle="180.00" width="2.8" length="5.5"/>
        <space x="1095.20" y="-22.00" angle="180.00" width="2.8" length="5.5"/>
        <space x="1104.80" y="-22.00" angle="180.00" width="2.8" length="5.5"/>
        <space x="1108.00" y="-22.00" angle="180.00" width="2.8" length="5.5"/>
        <space x="1111.20" y="-22.00" angle="180.00" width="2.8" length="5.5"/>
        <space x="1114.40" y="-22.00" angle="180.00" width="2.8" length="5.5"/>
        <space x="1117.60" y="-22.00" angle="180.00" width="2.8" length="5.5"/>
        <space x="1120.80" y="-22.00" angle="180.00" width="2.8" length="5.5"/>
        <space x="1124.00" y="-22.00" angle="180.00" width="2.8" length="5.5"/>
        <space x="1127.20" y="-22.00" angle="180.00" width="2.8" length="5.5"/>
        <space x="1130.40" y="-22.00" angle="180.00" width="2.8" length="5.5"/>
        <space x="1069.60" y="-45.00" angle="0.00" width="2.8" length="5.5"/>
        <space x="1072.80" y="-45.00" angle="0.00" width="2.8" length="5.5"/>
        <space x="1076.00" y="-45.00" angle="0.00" width="2.8" length="5.5"/>
        <space x="1079.20" y="-45.00" angle="0.00" width="2.8" length="5.5"/>
        <space x="1082.40" y="-45.00" angle="0.00" width="2.8" length="5.5"/>
        <space x="1085.60" y="-45.00" angle="0.00" width="2.8" length="5.5"/>
        <space x="1088.80" y="-45.00" angle="0.00" width="2.8" length="5.5"/>
        <space x="1092.00" y="-45.00" angle="0.00" width="2.8" length="5.5"/>
        <space x="1095.20" y="-45.00" angle="0.00" width="2.8" length="5.5"/>
        <space x="1098.40" y="-45.00" angle="0.00" width="2.8" length="5.5"/>
        <space x="1101.60" y="-45.00" angle="0.00" width="2.8" length="5.5"/>
        <space x="1104.80" y="-45.00" angle="0.00" width="2.8" length="5.5"/>
        <space x="1108.00" y="-45.00" angle="0.00" width="2.8" length="5.5"/>
        <space x="1111.20" y="-45.00" angle="0.00" width="2.8" length="5.5"/>
        <space x="1114.40" y="-45.00" angle="0.00" width="2.8" length="5.5"/>
        <space x="1117.60" y="-45.00" angle="0.00" width="2.8" length="5.5"/>
        <space x="1120.80" y="-45.00" angle="0.00" width="2.8" length="5.5"/>
        <space x="1124.00" y="-45.00" angle="0.00" width="2.8" length="5.5"/>
        <space x="1127.20" y="-45.00" angle="0.00" width="2.8" length="5.5"/>
        <space x="1130.40" y="-45.00" angle="0.00" width="2.8" length="5.5"/>
    </parkingArea>
    <poly id="floor_off_street_8" color="40,40,40" fill="true" layer="0" shape="2212.00,1665.00 2255.00,1665.00 2255.00,1735.00 2212.00,1735.00"/>
    <poly id="driveway_off_street_8" color="40,40,40" fill="true" layer="1" shape="2205.00,1696.00 2212.00,1696.00 2212.00,1704.00 2205.00,1704.00"/>
    <poly id="wall_off_street_8" color="200,200,200" fill="false" lineWidth="2" layer="2" shape="2212.00,1696.00 2212.00,1665.00 2255.00,1665.00 2255.00,1735.00 2212.00,1735.00 2212.00,1704.00"/>
    <parkingArea id="off_street_8" lane="L8L9_0" startPos="98.5" endPos="101.5" roadsideCapacity="0" onRoad="false">
        <space x="2222.00" y="1669.60" angle="90.00" width="2.8" length="5.5"/>
        <space x="2222.00" y="1672.80" angle="90.00" width="2.8" length="5.5"/>
        <space x="2222.00" y="1676.00" angle="90.00" width="2.8" length="5.5"/>