<?xml version="1.0" encoding="UTF-8"?>
<additional>
    <poly id="floor_off_street_0" color="40,40,40" fill="true" layer="0" shape="812.00,1065.00 855.00,1065.00 855.00,1135.00 812.00,1135.00"/>
    <poly id="driveway_off_street_0" color="40,40,40" fill="true" layer="1" shape="805.00,1096.00 812.00,1096.00 812.00,1104.00 805.00,1104.00"/>
    <poly id="wall_off_street_0" color="200,200,200" fill="false" lineWidth="2" layer="2" shape="812.00,1096.00 812.00,1065.00 855.00,1065.00 855.00,1135.00 812.00,1135.00 812.00,1104.00"/>
    <parkingArea id="off_street_0" lane="E5E6_0" startPos="98.5" endPos="101.5" roadsideCapacity="0" onRoad="false">
        <space x="822.00" y="1069.60" angle="90.00" width="2.8" length="5.5"/>
        <space x="822.00" y="1072.80" angle="90.00" width="2.8" length="5.5"/>
        <space x="822.00" y="1076.00" angle="90.00" width="2.8" length="5.5"/>
        <space x="822.00" y="1079.20" angle="90.00" width="2.8" length="5.5"/>
        <space x="822.00" y="1082.40" angle="90.00" width="2.8" length="5.5"/>
        <space x="822.00" y="1085.60" angle="90.00" width="2.8" length="5.5"/>
        <space x="822.00" y="1088.80" angle="90.00" width="2.8" length="5.5"/>
        <space x="822.00" y="1092.00" angle="90.00" width="2.8" length="5.5"/>
        <space x="822.00" y="1095.20" angle="90.00" width="2.8" length="5.5"/>
        <space x="822.00" y="1104.80" angle="90.00" width="2.8" length="5.5"/>
        <space x="822.00" y="1108.00" angle="90.00" width="2.8" length="5.5"/>
        <space x="822.00" y="1111.20" angle="90.00" width="2.8" length="5.5"/>
        <space x="822.00" y="1114.40" angle="90.00" width="2.8" length="5.5"/>
        <space x="822.00" y="1117.60" angle="90.00" width="2.8" length="5.5"/>
        <space x="822.00" y="1120.80" angle="90.00" width="2.8" length="5.5"/>
        <space x="822.00" y="1124.00" angle="90.00" width="2.8" length="5.5"/>
        <space x="822.00" y="1127.20" angle="90.00" width="2.8" length="5.5"/>
        <space x="822.00" y="1130.40" angle="90.00" width="2.8" length="5.5"/>
        <space x="845.00" y="1069.60" angle="270.00" width="2.8" length="5.5"/>
        <space x="845.00" y="1072.80" angle="270.00" width="2.8" length="5.5"/>
        <space x="845.00" y="1076.00" angle="270.00" width="2.8" length="5.5"/>
        <space x="845.00" y="1079.20" angle="270.00" width="2.8" length="5.5"/>
        <space x="845.00" y="1082.40" angle="270.00" width="2.8" length="5.5"/>
        <space x="845.00" y="1085.60" angle="270.00" width="2.8" length="5.5"/>
        <space x="845.00" y="1088.80" angle="270.00" width="2.8" length="5.5"/>
        <space x="845.00" y="1092.00" angle="270.00" width="2.8" length="5.5"/>
        <space x="845.00" y="1095.20" angle="270.00" width="2.8" length="5.5"/>
        <space x="845.00" y="1098.40" angle="270.00" width="2.8" length="5.5"/>
        <space x="845.00" y="1101.60" angle="270.00" width="2.8" length="5.5"/>
        <space x="845.00" y="1104.80" angle="270.00" width="2.8" length="5.5"/>
        <space x="845.00" y="1108.00" angle="270.00" width="2.8" length="5.5"/>
        <space x="845.00" y="1111.20" angle="270.00" width="2.8" length="5.5"/>
        <space x="845.00" y="1114.40" angle="270.00" width="2.8" length="5.5"/>
        <space x="845.00" y="1117.60" angle="270.00" width="2.8" length="5.5"/>
        <space x="845.00" y="1120.80" angle="270.00" width="2.8" length="5.5"/>
        <space x="845.00" y="1124.00" angle="270.00" width="2.8" length="5.5"/>
        <space x="845.00" y="1127.20" angle="270.00" width="2.8" length="5.5"/>
        <space x="845.00" y="1130.40" angle="270.00" width="2.8" length="5.5"/>
    </parkingArea>
    <poly id="floor_off_street_1" color="40,40,40" fill="true" layer="0" shape="2788.00,135.00 2745.00,135.00 2745.00,65.00 2788.00,65.00"/>
    <poly id="driveway_off_street_1" color="40,40,40" fill="true" layer="1" shape="2795.00,104.00 2788.00,104.00 2788.00,96.00 2795.00,96.00"/>
    <poly id="wall_off_street_1" color="200,200,200" fill="false" lineWidth="2" layer="2" shape="2788.00,104.00 2788.00,135.00 2745.00,135.00 2745.00,65.00 2788.00,65.00 2788.00,96.00"/>
    <parkingArea id="off_street_1" lane="O1O0_0" startPos="98.5" endPos="101.5" roadsideCapacity="0" onRoad="false">
        <space x="2778.00" y="130.40" angle="270.00" width="2.8" length="5.5"/>
        <space x="2778.00" y="127.20" angle="270.00" width="2.8" length="5.5"/>
        <space x="2778.00" y="124.00" angle="270.00" width="2.8" length="5.5"/>
        <space x="2778.00" y="120.80" angle="270.00" width="2.8" length="5.5"/>
        <space x="2778.00" y="117.60" angle="270.00" width="2.8" length="5.5"/>
        <space x="2778.00" y="114.40" angle="270.00" width="2.8" length="5.5"/>
        <space x="2778.00" y="111.20" angle="270.00" width="2.8" length="5.5"/>
        <space x="2778.00" y="108.00" angle="270.00" width="2.8" length="5.5"/>
        <space x="2778.00" y="104.80" angle="270.00" width="2.8" length="5.5"/>
        <space x="2778.00" y="95.20" angle="270.00" width="2.8" length="5.5"/>
        <space x="2778.00" y="92.00" angle="270.00" width="2.8" length="5.5"/>
        <space x="2778.00" y="88.80" angle="270.00" width="2.8" length="5.5"/>
        <space x="2778.00" y="85.60" angle="270.00" width="2.8" length="5.5"/>
        <space x="2778.00" y="82.40" angle="270.00" width="2.8" length="5.5"/>
        <space x="2778.00" y="79.20" angle="270.00" width="2.8" length="5.5"/>
        <space x="2778.00" y="76.00" angle="270.00" width="2.8" length="5.5"/>
        <space x="2778.00" y="72.80" angle="270.00" width="2.8" length="5.5"/>
        <space x="2778.00" y="69.60" angle="270.00" width="2.8" length="5.5"/>
        <space x="2755.00" y="130.40" angle="90.00" width="2.8" length="5.5"/>
        <space x="2755.00" y="127.20" angle="90.00" width="2.8" length="5.5"/>
        <space x="2755.00" y="124.00" angle="90.00" width="2.8" length="5.5"/>
        <space x="2755.00" y="120.80" angle="90.00" width="2.8" length="5.5"/>
        <space x="2755.00" y="117.60" angle="90.00" width="2.8" length="5.5"/>
        <space x="2755.00" y="114.40" angle="90.00" width="2.8" length="5.5"/>
        <space x="2755.00" y="111.20" angle="90.00" width="2.8" length="5.5"/>
        <space x="2755.00" y="108.00" angle="90.00" width="2.8" length="5.5"/>
        <space x="2755.00" y="104.80" angle="90.00" width="2.8" length="5.5"/>
        <space x="2755.00" y="101.60" angle="90.00" width="2.8" length="5.5"/>
        <space x="2755.00" y="98.40" angle="90.00" width="2.8" length="5.5"/>
        <space x="2755.00" y="95.20" angle="90.00" width="2.8" length="5.5"/>
        <space x="2755.00" y="92.00" angle="90.00" width="2.8" length="5.5"/>
        <space x="2755.00" y="88.80" angle="90.00" width="2.8" length="5.5"/>
        <space x="2755.00" y="85.60" angle="90.00" width="2.8" length="5.5"/>
        <space x="2755.00" y="82.40" angle="90.00" width="2.8" length="5.5"/>
        <space x="2755.00" y="79.20" angle="90.00" width="2.8" length="5.5"/>
        <space x="2755.00" y="76.00" angle="90.00" width="2.8" length="5.5"/>
        <space x="2755.00" y="72.80" angle="90.00" width="2.8" length="5.5"/>
        <space x="2755.00" y="69.60" angle="90.00" width="2.8" length="5.5"/>
    </parkingArea>
    <poly id="floor_off_street_2" color="40,40,40" fill="true" layer="0" shape="2065.00,788.00 2065.00,745.00 2135.00,745.00 2135.00,788.00"/>
    <poly id="driveway_off_street_2" color="40,40,40" fill="true" layer="1" shape="2096.00,795.00 2096.00,788.00 2104.00,788.00 2104.00,795.00"/>
    <poly id="wall_off_street_2" color="200,200,200" fill="false" lineWidth="2" layer="2" shape="2096.00,788.00 2065.00,788.00 2065.00,745.00 2135.00,745.00 2135.00,788.00 2104.00,788.00"/>
    <parkingArea id="off_street_2" lane="K4L4_0" startPos="98.5" endPos="101.5" roadsideCapacity="0" onRoad="false">
        <space x="2069.60" y="778.00" angle="180.00" width="2.8" length="5.5"/>
        <space x="2072.80" y="778.00" angle="180.00" width="2.8" length="5.5"/>
        <space x="2076.00" y="778.00" angle="180.00" width="2.8" length="5.5"/>
        <space x="2079.20" y="778.00" angle="180.00" width="2.8" length="5.5"/>
        <space x="2082.40" y="778.00" angle="180.00" width="2.8" length="5.5"/>
        <space x="2085.60" y="778.00" angle="180.00" width="2.8" length="5.5"/>
        <space x="2088.80" y="778.00" angle="180.00" width="2.8" length="5.5"/>
        <space x="2092.00" y="778.00" angle="180.00" width="2.8" length="5.5"/>
        <space x="2095.20" y="778.00" angle="180.00" width="2.8" length="5.5"/>
        <space x="2104.80" y="778.00" angle="180.00" width="2.8" length="5.5"/>
        <space x="2108.00" y="778.00" angle="180.00" width="2.8" length="5.5"/>
        <space x="2111.20" y="778.00" angle="180.00" width="2.8" length="5.5"/>
        <space x="2114.40" y="778.00" angle="180.00" width="2.8" length="5.5"/>
        <space x="2117.60" y="778.00" angle="180.00" width="2.8" length="5.5"/>
        <space x="2120.80" y="778.00" angle="180.00" width="2.8" length="5.5"/>
        <space x="2124.00" y="778.00" angle="180.00" width="2.8" length="5.5"/>
        <space x="2127.20" y="778.00" angle="180.00" width="2.8" length="5.5"/>
        <space x="2130.40" y="778.00" angle="180.00" width="2.8" length="5.5"/>
        <space x="2069.60" y="755.00" angle="0.00" width="2.8" length="5.5"/>
        <space x="2072.80" y="755.00" angle="0.00" width="2.8" length="5.5"/>
        <space x="2076.00" y="755.00" angle="0.00" width="2.8" length="5.5"/>
        <space x="2079.20" y="755.00" angle="0.00" width="2.8" length="5.5"/>
        <space x="2082.40" y="755.00" angle="0.00" width="2.8" length="5.5"/>
        <space x="2085.60" y="755.00" angle="0.00" width="2.8" length="5.5"/>
        <space x="2088.80" y="755.00" angle="0.00" width="2.8" length="5.5"/>
        <space x="2092.00" y="755.00" angle="0.00" width="2.8" length="5.5"/>
        <space x="2095.20" y="755.00" angle="0.00" width="2.8" length="5.5"/>
        <space x="2098.40" y="755.00" angle="0.00" width="2.8" length="5.5"/>
        <space x="2101.60" y="755.00" angle="0.00" width="2.8" length="5.5"/>
        <space x="2104.80" y="755.00" angle="0.00" width="2.8" length="5.5"/>
        <space x="2108.00" y="755.00" angle="0.00" width="2.8" length="5.5"/>
        <space x="2111.20" y="755.00" angle="0.00" width="2.8" length="5.5"/>
        <space x="2114.40" y="755.00" angle="0.00" width="2.8" length="5.5"/>
        <space x="2117.60" y="755.00" angle="0.00" width="2.8" length="5.5"/>
        <space x="2120.80" y="755.00" angle="0.00" width="2.8" length="5.5"/>
        <space x="2124.00" y="755.00" angle="0.00" width="2.8" length="5.5"/>
        <space x="2127.20" y="755.00" angle="0.00" width="2.8" length="5.5"/>
        <space x="2130.40" y="755.00" angle="0.00" width="2.8" length="5.5"/>
    </parkingArea>
    <poly id="floor_off_street_3" color="40,40,40" fill="true" layer="0" shape="935.00,2812.00 935.00,2855.00 865.00,2855.00 865.00,2812.00"/>
    <poly id="driveway_off_street_3" color="40,40,40" fill="true" layer="1" shape="904.00,2805.00 904.00,2812.00 896.00,2812.00 896.00,2805.00"/>
    <poly id="wall_off_street_3" color="200,200,200" fill="false" lineWidth="2" layer="2" shape="904.00,2812.00 935.00,2812.00 935.00,2855.00 865.00,2855.00 865.00,2812.00 896.00,2812.00"/>
    <parkingArea id="off_street_3" lane="F14E14_0" startPos="98.5" endPos="101.5" roadsideCapacity="0" onRoad="false">
        <space x="930.40" y="2822.00" angle="0.00" width="2.8" length="5.5"/>
        <space x="927.20" y="2822.00" angle="0.00" width="2.8" length="5.5"/>
        <space x="924.00" y="2822.00" angle="0.00" width="2.8" length="5.5"/>
        <space x="920.80" y="2822.00" angle="0.00" width="2.8" length="5.5"/>
        <space x="917.60" y="2822.00" angle="0.00" width="2.8" length="5.5"/>
        <space x="914.40" y="2822.00" angle="0.00" width="2.8" length="5.5"/>
        <space x="911.20" y="2822.00" angle="0.00" width="2.8" length="5.5"/>
        <space x="908.00" y="2822.00" angle="0.00" width="2.8" length="5.5"/>
        <space x="904.80" y="2822.00" angle="0.00" width="2.8" length="5.5"/>
        <space x="895.20" y="2822.00" angle="0.00" width="2.8" length="5.5"/>
        <space x="892.00" y="2822.00" angle="0.00" width="2.8" length="5.5"/>
        <space x="888.80" y="2822.00" angle="0.00" width="2.8" length="5.5"/>
        <space x="885.60" y="2822.00" angle="0.00" width="2.8" length="5.5"/>
        <space x="882.40" y="2822.00" angle="0.00" width="2.8" length="5.5"/>
        <space x="879.20" y="2822.00" angle="0.00" width="2.8" length="5.5"/>
        <space x="876.00" y="2822.00" angle="0.00" width="2.8" length="5.5"/>
        <space x="872.80" y="2822.00" angle="0.00" width="2.8" length="5.5"/>
        <space x="869.60" y="2822.00" angle="0.00" width="2.8" length="5.5"/>
        <space x="930.40" y="2845.00" angle="180.00" width="2.8" length="5.5"/>
        <space x="927.20" y="2845.00" angle="180.00" width="2.8" length="5.5"/>
        <space x="924.00" y="2845.00" angle="180.00" width="2.8" length="5.5"/>
        <space x="920.80" y="2845.00" angle="180.00" width="2.8" length="5.5"/>
        <space x="917.60" y="2845.00" angle="180.00" width="2.8" length="5.5"/>
        <space x="914.40" y="2845.00" angle="180.00" width="2.8" length="5.5"/>
        <space x="911.20" y="2845.00" angle="180.00" width="2.8" length="5.5"/>
        <space x="908.00" y="2845.00" angle="180.00" width="2.8" length="5.5"/>
        <space x="904.80" y="2845.00" angle="180.00" width="2.8" length="5.5"/>
        <space x="901.60" y="2845.00" angle="180.00" width="2.8" length="5.5"/>
        <space x="898.40" y="2845.00" angle="180.00" width="2.8" length="5.5"/>
        <space x="895.20" y="2845.00" angle="180.00" width="2.8" length="5.5"/>
        <space x="892.00" y="2845.00" angle="180.00" width="2.8" length="5.5"/>
        <space x="888.80" y="2845.00" angle="180.00" width="2.8" length="5.5"/>
        <space x="885.60" y="2845.00" angle="180.00" width="2.8" length="5.5"/>
        <space x="882.40" y="2845.00" angle="180.00" width="2.8" length="5.5"/>
        <space x="879.20" y="2845.00" angle="180.00" width="2.8" length="5.5"/>
        <space x="876.00" y="2845.00" angle="180.00" width="2.8" length="5.5"/>
        <space x="872.80" y="2845.00" angle="180.00" width="2.8" length="5.5"/>
        <space x="869.60" y="2845.00" angle="180.00" width="2.8" length="5.5"/>
    </parkingArea>
    <poly id="floor_off_street_4" color="40,40,40" fill="true" layer="0" shape="1012.00,1665.00 1055.00,1665.00 1055.00,1735.00 1012.00,1735.00"/>
    <poly id="driveway_off_street_4" color="40,40,40" fill="true" layer="1" shape="1005.00,1696.00 1012.00,1696.00 1012.00,1704.00 1005.00,1704.00"/>
    <poly id="wall_off_street_4" color="200,200,200" fill="false" lineWidth="2" layer="2" shape="1012.00,1696.00 1012.00,1665.00 1055.00,1665.00 1055.00,1735.00 1012.00,1735.00 1012.00,1704.00"/>
    <parkingArea id="off_street_4" lane="F8F9_0" startPos="98.5" endPos="101.5" roadsideCapacity="0" onRoad="false">
        <space x="1022.00" y="1669.60" angle="90.00" width="2.8" length="5.5"/>
        <space x="1022.00" y="1672.80" angle="90.00" width="2.8" length="5.5"/>
        <space x="1022.00" y="1676.00" angle="90.00" width="2.8" length="5.5"/>
        <space x="1022.00" y="1679.20" angle="90.00" width="2.8" length="5.5"/>
        <space x="1022.00" y="1682.40" angle="90.00" width="2.8" length="5.5"/>
        <space x="1022.00" y="1685.60" angle="90.00" width="2.8" length="5.5"/>
        <space x="1022.00" y="1688.80" angle="90.00" width="2.8" length="5.5"/>
        <space x="1022.00" y="1692.00" angle="90.00" width="2.8" length="5.5"/>
        <space x="1022.00" y="1695.20" angle="90.00" width="2.8" length="5.5"/>
        <space x="1022.00" y="1704.80" angle="90.00" width="2.8" length="5.5"/>
        <space x="1022.00" y="1708.00" angle="90.00" width="2.8" length="5.5"/>
        <space x="1022.00" y="1711.20" angle="90.00" width="2.8" length="5.5"/>
        <space x="1022.00" y="1714.40" angle="90.00" width="2.8" length="5.5"/>
        <space x="1022.00" y="1717.60" angle="90.00" width="2.8" length="5.5"/>
        <space x="1022.00" y="1720.80" angle="90.00" width="2.8" length="5.5"/>
        <space x="1022.00" y="1724.00" angle="90.00" width="2.8" length="5.5"/>
        <space x="1022.00" y="1727.20" angle="90.00" width="2.8" length="5.5"/>
        <space x="1022.00" y="1730.40" angle="90.00" width="2.8" length="5.5"/>
        <space x="1045.00" y="1669.60" angle="270.00" width="2.8" length="5.5"/>
        <space x="1045.00" y="1672.80" angle="270.00" width="2.8" length="5.5"/>
        <space x="1045.00" y="1676.00" angle="270.00" width="2.8" length="5.5"/>
        <space x="1045.00" y="1679.20" angle="270.00" width="2.8" length="5.5"/>
        <space x="1045.00" y="1682.40" angle="270.00" width="2.8" length="5.5"/>
        <space x="1045.00" y="1685.60" angle="270.00" width="2.8" length="5.5"/>
        <space x="1045.00" y="1688.80" angle="270.00" width="2.8" length="5.5"/>
        <space x="1045.00" y="1692.00" angle="270.00" width="2.8" length="5.5"/>
        <space x="1045.00" y="1695.20" angle="270.00" width="2.8" length="5.5"/>
        <space x="1045.00" y="1698.40" angle="270.00" width="2.8" length="5.5"/>
        <space x="1045.00" y="1701.60" angle="270.00" width="2.8" length="5.5"/>
        <space x="1045.00" y="1704.80" angle="270.00" width="2.8" length="5.5"/>
        <space x="1045.00" y="1708.00" angle="270.00" width="2.8" length="5.5"/>
        <space x="1045.00" y="1711.20" angle="270.00" width="2.8" length="5.5"/>
        <space x="1045.00" y="1714.40" angle="270.00" width="2.8" length="5.5"/>
        <space x="1045.00" y="1717.60" angle="270.00" width="2.8" length="5.5"/>
        <space x="1045.00" y="1720.80" angle="270.00" width="2.8" length="5.5"/>
        <space x="1045.00" y="1724.00" angle="270.00" width="2.8" length="5.5"/>
        <space x="1045.00" y="1727.20" angle="270.00" width="2.8" length="5.5"/>
        <space x="1045.00" y="1730.40" angle="270.00" width="2.8" length="5.5"/>
    </parkingArea>
    <poly id="floor_off_street_5" color="40,40,40" fill="true" layer="0" shape="735.00,1412.00 735.00,1455.00 665.00,1455.00 665.00,1412.00"/>
    <poly id="driveway_off_street_5" color="40,40,40" fill="true" layer="1" shape="704.00,1405.00 704.00,1412.00 696.00,1412.00 696.00,1405.00"/>
    <poly id="wall_off_street_5" color="200,200,200" fill="false" lineWidth="2" layer="2" shape="704.00,1412.00 735.00,1412.00 735.00,1455.00 665.00,1455.00 665.00,1412.00 696.00,1412.00"/>
    <parkingArea id="off_street_5" lane="E7D7_0" startPos="98.5" endPos="101.5" roadsideCapacity="0" onRoad="false">
        <space x="730.40" y="1422.00" angle="0.00" width="2.8" length="5.5"/>
        <space x="727.20" y="1422.00" angle="0.00" width="2.8" length="5.5"/>
        <space x="724.00" y="1422.00" angle="0.00" width="2.8" length="5.5"/>
        <space x="720.80" y="1422.00" angle="0.00" width="2.8" length="5.5"/>
        <space x="717.60" y="1422.00" angle="0.00" width="2.8" length="5.5"/>
        <space x="714.40" y="1422.00" angle="0.00" width="2.8" length="5.5"/>
        <space x="711.20" y="1422.00" angle="0.00" width="2.8" length="5.5"/>
        <space x="708.00" y="1422.00" angle="0.00" width="2.8" length="5.5"/>
        <space x="704.80" y="1422.00" angle="0.00" width="2.8" length="5.5"/>
        <space x="695.20" y="1422.00" angle="0.00" width="2.8" length="5.5"/>
        <space x="692.00" y="1422.00" angle="0.00" width="2.8" length="5.5"/>
        <space x="688.80" y="1422.00" angle="0.00" width="2.8" length="5.5"/>
        <space x="685.60" y="1422.00" angle="0.00" width="2.8" length="5.5"/>
        <space x="682.40" y="1422.00" angle="0.00" width="2.8" length="5.5"/>
        <space x="679.20" y="1422.00" angle="0.00" width="2.8" length="5.5"/>
        <space x="676.00" y="1422.00" angle="0.00" width="2.8" length="5.5"/>
        <space x="672.80" y="1422.00" angle="0.00" width="2.8" length="5.5"/>
        <space x="669.60" y="1422.00" angle="0.00" width="2.8" length="5.5"/>
        <space x="730.40" y="1445.00" angle="180.00" width="2.8" length="5.5"/>
        <space x="727.20" y="1445.00" angle="180.00" width="2.8" length="5.5"/>
        <space x="724.00" y="1445.00" angle="180.00" width="2.8" length="5.5"/>
        <space x="720.80" y="1445.00" angle="180.00" width="2.8" length="5.5"/>
        <space x="717.60" y="1445.00" angle="180.00" width="2.8" length="5.5"/>
        <space x="714.40" y="1445.00" angle="180.00" width="2.8" length="5.5"/>
        <space x="711.20" y="1445.00" angle="180.00" width="2.8" length="5.5"/>
        <space x="708.00" y="1445.00" angle="180.00" width="2.8" length="5.5"/>
        <space x="704.80" y="1445.00" angle="180.00" width="2.8" length="5.5"/>
        <space x="701.60" y="1445.00" angle="180.00" width="2.8" length="5.5"/>
        <space x="698.40" y="1445.00" angle="180.00" width="2.8" length="5.5"/>
        <space x="695.20" y="1445.00" angle="180.00" width="2.8" length="5.5"/>
        <space x="692.00" y="1445.00" angle="180.00" width="2.8" length="5.5"/>
        <space x="688.80" y="1445.00" angle="180.00" width="2.8" length="5.5"/>
        <space x="685.60" y="1445.00" angle="180.00" width="2.8" length="5.5"/>
        <space x="682.40" y="1445.00" angle="180.00" width="2.8" length="5.5"/>
        <space x="679.20" y="1445.00" angle="180.00" width="2.8" length="5.5"/>
        <space x="676.00" y="1445.00" angle="180.00" width="2.8" length="5.5"/>
        <space x="672.80" y="1445.00" angle="180.00" width="2.8" length="5.5"/>
        <space x="669.60" y="1445.00" angle="180.00" width="2.8" length="5.5"/>
    </parkingArea>
    <poly id="floor_off_street_6" color="40,40,40" fill="true" layer="0" shape="2535.00,2212.00 2535.00,2255.00 2465.00,2255.00 2465.00,2212.00"/>
    <poly id="driveway_off_street_6" color="40,40,40" fill="true" layer="1" shape="2504.00,2205.00 2504.00,2212.00 2496.00,2212.00 2496.00,2205.00"/>
    <poly id="wall_off_street_6" color="200,200,200" fill="false" lineWidth="2" layer="2" shape="2504.00,2212.00 2535.00,2212.00 2535.00,2255.00 2465.00,2255.00 2465.00,2212.00 2496.00,2212.00"/>
    <parkingArea id="off_street_6" lane="N11M11_0" startPos="98.5" endPos="101.5" roadsideCapacity="0" onRoad="false">
        <space x="2530.40" y="2222.00" angle="0.00" width="2.8" length="5.5"/>
        <space x="2527.20" y="2222.00" angle="0.00" width="2.8" length="5.5"/>
        <space x="2524.00" y="2222.00" angle="0.00" width="2.8" length="5.5"/>
        <space x="2520.80" y="2222.00" angle="0.00" width="2.8" length="5.5"/>
        <space x="2517.60" y="2222.00" angle="0.00" width="2.8" length="5.5"/>
        <space x="2514.40" y="2222.00" angle="0.00" width="2.8" length="5.5"/>
        <space x="2511.20" y="2222.00" angle="0.00" width="2.8" length="5.5"/>
        <space x="2508.00" y="2222.00" angle="0.00" width="2.8" length="5.5"/>
        <space x="2504.80" y="2222.00" angle="0.00" width="2.8" length="5.5"/>
        <space x="2495.20" y="2222.00" angle="0.00" width="2.8" length="5.5"/>
        <space x="2492.00" y="2222.00" angle="0.00" width="2.8" length="5.5"/>
        <space x="2488.80" y="2222.00" angle="0.00" width="2.8" length="5.5"/>
        <space x="2485.60" y="2222.00" angle="0.00" width="2.8" length="5.5"/>
        <space x="2482.40" y="2222.00" angle="0.00" width="2.8" length="5.5"/>
        <space x="2479.20" y="2222.00" angle="0.00" width="2.8" length="5.5"/>
        <space x="2476.00" y="2222.00" angle="0.00" width="2.8" length="5.5"/>
        <space x="2472.80" y="2222.00" angle="0.00" width="2.8" length="5.5"/>
        <space x="2469.60" y="2222.00" angle="0.00" width="2.8" length="5.5"/>
        <space x="2530.40" y="2245.00" angle="180.00" width="2.8" length="5.5"/>
        <space x="2527.20" y="2245.00" angle="180.00" width="2.8" length="5.5"/>
        <space x="2524.00" y="2245.00" angle="180.00" width="2.8" length="5.5"/>
        <space x="2520.80" y="2245.00" angle="180.00" width="2.8" length="5.5"/>
        <space x="2517.60" y="2245.00" angle="180.00" width="2.8" length="5.5"/>
        <space x="2514.40" y="2245.00" angle="180.00" width="2.8" length="5.5"/>
        <space x="2511.20" y="2245.00" angle="180.00" width="2.8" length="5.5"/>
        <space x="2508.00" y="2245.00" angle="180.00" width="2.8" length="5.5"/>
        <space x="2504.80" y="2245.00" angle="180.00" width="2.8" length="5.5"/>
        <space x="2501.60" y="2245.00" angle="180.00" width="2.8" length="5.5"/>
        <space x="2498.40" y="2245.00" angle="180.00" width="2.8" length="5.5"/>
        <space x="2495.20" y="2245.00" angle="180.00" width="2.8" length="5.5"/>
        <space x="2492.00" y="2245.00" angle="180.00" width="2.8" length="5.5"/>
        <space x="2488.80" y="2245.00" angle="180.00" width="2.8" length="5.5"/>
        <space x="2485.60" y="2245.00" angle="180.00" width="2.8" length="5.5"/>
        <space x="2482.40" y="2245.00" angle="180.00" width="2.8" length="5.5"/>
        <space x="2479.20" y="2245.00" angle="180.00" width="2.8" length="5.5"/>
        <space x="2476.00" y="2245.00" angle="180.00" width="2.8" length="5.5"/>
        <space x="2472.80" y="2245.00" angle="180.00" width="2.8" length="5.5"/>
        <space x="2469.60" y="2245.00" angle="180.00" width="2.8" length="5.5"/>
    </parkingArea>
    <poly id="floor_off_street_7" color="40,40,40" fill="true" layer="0" shape="1265.00,2588.00 1265.00,2545.00 1335.00,2545.00 1335.00,2588.00"/>
    <poly id="driveway_off_street_7" color="40,40,40" fill="true" layer="1" shape="1296.00,2595.00 1296.00,2588.00 1304.00,2588.00 1304.00,2595.00"/>
    <poly id="wall_off_street_7" color="200,200,200" fill="false" lineWidth="2" layer="2" shape="1296.00,2588.00 1265.00,2588.00 1265.00,2545.00 1335.00,2545.00 1335.00,2588.00 1304.00,2588.00"/>
    <parkingArea id="off_street_7" lane="G13H13_0" startPos="98.5" endPos="101.5" roadsideCapacity="0" onRoad="false">
        <space x="1269.60" y="2578.00" angle="180.00" width="2.8" length="5.5"/>
        <space x="1272.80" y="2578.00" angle="180.00" width="2.8" length="5.5"/>
        <space x="1276.00" y="2578.00" angle="180.00" width="2.8" length="5.5"/>
        <space x="1279.20" y="2578.00" angle="180.00" width="2.8" length="5.5"/>
        <space x="1282.40" y="2578.00" angle="180.00" width="2.8" length="5.5"/>
        <space x="1285.60" y="2578.00" angle="180.00" width="2.8" length="5.5"/>
        <space x="1288.80" y="2578.00" angle="180.00" width="2.8" length="5.5"/>
        <space x="1292.00" y="2578.00" angle="180.00" width="2.8" length="5.5"/>
        <space x="1295.20" y="2578.00" angle="180.00" width="2.8" length="5.5"/>
        <space x="1304.80" y="2578.00" angle="180.00" width="2.8" length="5.5"/>
        <space x="1308.00" y="2578.00" angle="180.00" width="2.8" length="5.5"/>
        <space x="1311.20" y="2578.00" angle="180.00" width="2.8" length="5.5"/>
        <space x="1314.40" y="2578.00" angle="180.00" width="2.8" length="5.5"/>
        <space x="1317.60" y="2578.00" angle="180.00" width="2.8" length="5.5"/>
        <space x="1320.80" y="2578.00" angle="180.00" width="2.8" length="5.5"/>
        <space x="1324.00" y="2578.00" angle="180.00" width="2.8" length="5.5"/>
        <space x="1327.20" y="2578.00" angle="180.00" width="2.8" length="5.5"/>
        <space x="1330.40" y="2578.00" angle="180.00" width="2.8" length="5.5"/>
        <space x="1269.60" y="2555.00" angle="0.00" width="2.8" length="5.5"/>
        <space x="1272.80" y="2555.00" angle="0.00" width="2.8" length="5.5"/>
        <space x="1276.00" y="2555.00" angle="0.00" width="2.8" length="5.5"/>
        <space x="1279.20" y="2555.00" angle="0.00" width="2.8" length="5.5"/>
        <space x="1282.40" y="2555.00" angle="0.00" width="2.8" length="5.5"/>
        <space x="1285.60" y="2555.00" angle="0.00" width="2.8" length="5.5"/>
        <space x="1288.80" y="2555.00" angle="0.00" width="2.8" length="5.5"/>
        <space x="1292.00" y="2555.00" angle="0.00" width="2.8" length="5.5"/>
        <space x="1295.20" y="2555.00" angle="0.00" width="2.8" length="5.5"/>
        <space x="1298.40" y="2555.00" angle="0.00" width="2.8" length="5.5"/>
        <space x="1301.60" y="2555.00" angle="0.00" width="2.8" length="5.5"/>
        <space x="1304.80" y="2555.00" angle="0.00" width="2.8" length="5.5"/>
        <space x="1308.00" y="2555.00" angle="0.00" width="2.8" length="5.5"/>
        <space x="1311.20" y="2555.00" angle="0.00" width="2.8" length="5.5"/>
        <space x="1314.40" y="2555.00" angle="0.00" width="2.8" length="5.5"/>
        <space x="1317.60" y="2555.00" angle="0.00" width="2.8" length="5.5"/>
        <space x="1320.80" y="2555.00" angle="0.00" width="2.8" length="5.5"/>
        <space x="1324.00" y="2555.00" angle="0.00" width="2.8" length="5.5"/>
        <space x="1327.20" y="2555.00" angle="0.00" width="2.8" length="5.5"/>
        <space x="1330.40" y="2555.00" angle="0.00" width="2.8" length="5.5"/>
    </parkingArea>
    <poly id="floor_off_street_8" color="40,40,40" fill="true" layer="0" shape="1465.00,1588.00 1465.00,1545.00 1535.00,1545.00 1535.00,1588.00"/>
    <poly id="driveway_off_street_8" color="40,40,40" fill="true" layer="1" shape="1496.00,1595.00 1496.00,1588.00 1504.00,1588.00 1504.00,1595.00"/>
    <poly id="wall_off_street_8" color="200,200,200" fill="false" lineWidth="2" layer="2" shape="1496.00,1588.00 1465.00,1588.00 1465.00,1545.00 1535.00,1545.00 1535.00,1588.00 1504.00,1588.00"/>
    <parkingArea id="off_street_8" lane="H8I8_0" startPos="98.5" endPos="101.5" roadsideCapacity="0" onRoad="false">
        <space x="1469.60" y="1578.00" angle="180.00" width="2.8" length="5.5"/>
        <space x="1472.80" y="1578.00" angle="180.00" width="2.8" length="5.5"/>