<?xml version="1.0" encoding="UTF-8"?>
<additional>
    <poly id="floor_off_street_0" color="40,40,40" fill="true" layer="0" shape="665.00,1388.00 665.00,1345.00 735.00,1345.00 735.00,1388.00"/>
    <poly id="driveway_off_street_0" color="40,40,40" fill="true" layer="1" shape="696.00,1395.00 696.00,1388.00 704.00,1388.00 704.00,1395.00"/>
    <poly id="wall_off_street_0" color="200,200,200" fill="false" lineWidth="2" layer="2" shape="696.00,1388.00 665.00,1388.00 665.00,1345.00 735.00,1345.00 735.00,1388.00 704.00,1388.00"/>
    <parkingArea id="off_street_0" lane="D7E7_0" startPos="98.5" endPos="101.5" roadsideCapacity="0" onRoad="false">
        <space x="669.60" y="1378.00" angle="180.00" width="2.8" length="5.5"/>
        <space x="672.80" y="1378.00" angle="180.00" width="2.8" length="5.5"/>
        <space x="676.00" y="1378.00" angle="180.00" width="2.8" length="5.5"/>
        <space x="679.20" y="1378.00" angle="180.00" width="2.8" length="5.5"/>
        <space x="682.40" y="1378.00" angle="180.00" width="2.8" length="5.5"/>
        <space x="685.60" y="1378.00" angle="180.00" width="2.8" length="5.5"/>
        <space x="688.80" y="1378.00" angle="180.00" width="2.8" length="5.5"/>
        <space x="692.00" y="1378.00" angle="180.00" width="2.8" length="5.5"/>
        <space x="695.20" y="1378.00" angle="180.00" width="2.8" length="5.5"/>
        <space x="704.80" y="1378.00" angle="180.00" width="2.8" length="5.5"/>
        <space x="708.00" y="1378.00" angle="180.00" width="2.8" length="5.5"/>
        <space x="711.20" y="1378.00" angle="180.00" width="2.8" length="5.5"/>
        <space x="714.40" y="1378.00" angle="180.00" width="2.8" length="5.5"/>
        <space x="717.60" y="1378.00" angle="180.00" width="2.8" length="5.5"/>
        <space x="720.80" y="1378.00" angle="180.00" width="2.8" length="5.5"/>
        <space x="724.00" y="1378.00" angle="180.00" width="2.8" length="5.5"/>
        <space x="727.20" y="1378.00" angle="180.00" width="2.8" length="5.5"/>
        <space x="730.40" y="1378.00" angle="180.00" width="2.8" length="5.5"/>
        <space x="669.60" y="1355.00" angle="0.00" width="2.8" length="5.5"/>
        <space x="672.80" y="1355.00" angle="0.00" width="2.8" length="5.5"/>
        <space x="676.00" y="1355.00" angle="0.00" width="2.8" length="5.5"/>
        <space x="679.20" y="1355.00" angle="0.00" width="2.8" length="5.5"/>
        <space x="682.40" y="1355.00" angle="0.00" width="2.8" length="5.5"/>
        <space x="685.60" y="1355.00" angle="0.00" width="2.8" length="5.5"/>
        <space x="688.80" y="1355.00" angle="0.00" width="2.8" length="5.5"/>
        <space x="692.00" y="1355.00" angle="0.00" width="2.8" length="5.5"/>
        <space x="695.20" y="1355.00" angle="0.00" width="2.8" length="5.5"/>
        <space x="698.40" y="1355.00" angle="0.00" width="2.8" length="5.5"/>
        <space x="701.60" y="1355.00" angle="0.00" width="2.8" length="5.5"/>
        <space x="704.80" y="1355.00" angle="0.00" width="2.8" length="5.5"/>
        <space x="708.00" y="1355.00" angle="0.00" width="2.8" length="5.5"/>
        <space x="711.20" y="1355.00" angle="0.00" width="2.8" length="5.5"/>
        <space x="714.40" y="1355.00" angle="0.00" width="2.8" length="5.5"/>
        <space x="717.60" y="1355.00" angle="0.00" width="2.8" length="5.5"/>
        <space x="720.80" y="1355.00" angle="0.00" width="2.8" length="5.5"/>
        <space x="724.00" y="1355.00" angle="0.00" width="2.8" length="5.5"/>
        <space x="727.20" y="1355.00" angle="0.00" width="2.8" length="5.5"/>
        <space x="730.40" y="1355.00" angle="0.00" width="2.8" length="5.5"/>
    </parkingArea>
    <poly id="floor_off_street_1" color="40,40,40" fill="true" layer="0" shape="2335.00,1212.00 2335.00,1255.00 2265.00,1255.00 2265.00,1212.00"/>
    <poly id="driveway_off_street_1" color="40,40,40" fill="true" layer="1" shape="2304.00,1205.00 2304.00,1212.00 2296.00,1212.00 2296.00,1205.00"/>
    <poly id="wall_off_street_1" color="200,200,200" fill="false" lineWidth="2" layer="2" shape="2304.00,1212.00 2335.00,1212.00 2335.00,1255.00 2265.00,1255.00 2265.00,1212.00 2296.00,1212.00"/>
    <parkingArea id="off_street_1" lane="M6L6_0" startPos="98.5" endPos="101.5" roadsideCapacity="0" onRoad="false">
        <space x="2330.40" y="1222.00" angle="0.00" width="2.8" length="5.5"/>
        <space x="2327.20" y="1222.00" angle="0.00" width="2.8" length="5.5"/>
        <space x="2324.00" y="1222.00" angle="0.00" width="2.8" length="5.5"/>
        <space x="2320.80" y="1222.00" angle="0.00" width="2.8" length="5.5"/>
        <space x="2317.60" y="1222.00" angle="0.00" width="2.8" length="5.5"/>
        <space x="2314.40" y="1222.00" angle="0.00" width="2.8" length="5.5"/>
        <space x="2311.20" y="1222.00" angle="0.00" width="2.8" length="5.5"/>
        <space x="2308.00" y="1222.00" angle="0.00" width="2.8" length="5.5"/>
        <space x="2304.80" y="1222.00" angle="0.00" width="2.8" length="5.5"/>
        <space x="2295.20" y="1222.00" angle="0.00" width="2.8" length="5.5"/>
        <space x="2292.00" y="1222.00" angle="0.00" width="2.8" length="5.5"/>
        <space x="2288.80" y="1222.00" angle="0.00" width="2.8" length="5.5"/>
        <space x="2285.60" y="1222.00" angle="0.00" width="2.8" length="5.5"/>
        <space x="2282.40" y="1222.00" angle="0.00" width="2.8" length="5.5"/>
        <space x="2279.20" y="1222.00" angle="0.00" width="2.8" length="5.5"/>
        <space x="2276.00" y="1222.00" angle="0.00" width="2.8" length="5.5"/>
        <space x="2272.80" y="1222.00" angle="0.00" width="2.8" length="5.5"/>
        <space x="2269.60" y="1222.00" angle="0.00" width="2.8" length="5.5"/>
        <space x="2330.40" y="1245.00" angle="180.00" width="2.8" length="5.5"/>
        <space x="2327.20" y="1245.00" angle="180.00" width="2.8" length="5.5"/>
        <space x="2324.00" y="1245.00" angle="180.00" width="2.8" length="5.5"/>
        <space x="2320.80" y="1245.00" angle="180.00" width="2.8" length="5.5"/>
        <space x="2317.60" y="1245.00" angle="180.00" width="2.8" length="5.5"/>
        <space x="2314.40" y="1245.00" angle="180.00" width="2.8" length="5.5"/>
        <space x="2311.20" y="1245.00" angle="180.00" width="2.8" length="5.5"/>
        <space x="2308.00" y="1245.00" angle="180.00" width="2.8" length="5.5"/>
        <space x="2304.80" y="1245.00" angle="180.00" width="2.8" length="5.5"/>
        <space x="2301.60" y="1245.00" angle="180.00" width="2.8" length="5.5"/>
        <space x="2298.40" y="1245.00" angle="180.00" width="2.8" length="5.5"/>
        <space x="2295.20" y="1245.00" angle="180.00" width="2.8" length="5.5"/>
        <space x="2292.00" y="1245.00" angle="180.00" width="2.8" length="5.5"/>
        <space x="2288.80" y="1245.00" angle="180.00" width="2.8" length="5.5"/>
        <space x="2285.60" y="1245.00" angle="180.00" width="2.8" length="5.5"/>
        <space x="2282.40" y="1245.00" angle="180.00" width="2.8" length="5.5"/>
        <space x="2279.20" y="1245.00" angle="180.00" width="2.8" length="5.5"/>
        <space x="2276.00" y="1245.00" angle="180.00" width="2.8" length="5.5"/>
        <space x="2272.80" y="1245.00" angle="180.00" width="2.8" length="5.5"/>
        <space x="2269.60" y="1245.00" angle="180.00" width="2.8" length="5.5"/>
    </parkingArea>
    <poly id="floor_off_street_2" color="40,40,40" fill="true" layer="0" shape="2788.00,1135.00 2745.00,1135.00 2745.00,1065.00 2788.00,1065.00"/>
    <poly id="driveway_off_street_2" color="40,40,40" fill="true" layer="1" shape="2795.00,1104.00 2788.00,1104.00 2788.00,1096.00 2795.00,1096.00"/>
    <poly id="wall_off_street_2" color="200,200,200" fill="false" lineWidth="2" layer="2" shape="2788.00,1104.00 2788.00,1135.00 2745.00,1135.00 2745.00,1065.00 2788.00,1065.00 2788.00,1096.00"/>
    <parkingArea id="off_street_2" lane="O6O5_0" startPos="98.5" endPos="101.5" roadsideCapacity="0" onRoad="false">
        <space x="2778.00" y="1130.40" angle="270.00" width="2.8" length="5.5"/>
        <space x="2778.00" y="1127.20" angle="270.00" width="2.8" length="5.5"/>
        <space x="2778.00" y="1124.00" angle="270.00" width="2.8" length="5.5"/>
        <space x="2778.00" y="1120.80" angle="270.00" width="2.8" length="5.5"/>
        <space x="2778.00" y="1117.60" angle="270.00" width="2.8" length="5.5"/>
        <space x="2778.00" y="1114.40" angle="270.00" width="2.8" length="5.5"/>
        <space x="2778.00" y="1111.20" angle="270.00" width="2.8" length="5.5"/>
        <space x="2778.00" y="1108.00" angle="270.00" width="2.8" length="5.5"/>
        <space x="2778.00" y="1104.80" angle="270.00" width="2.8" length="5.5"/>
        <space x="2778.00" y="1095.20" angle="270.00" width="2.8" length="5.5"/>
        <space x="2778.00" y="1092.00" angle="270.00" width="2.8" length="5.5"/>
        <space x="2778.00" y="1088.80" angle="270.00" width="2.8" length="5.5"/>
        <space x="2778.00" y="1085.60" angle="270.00" width="2.8" length="5.5"/>
        <space x="2778.00" y="1082.40" angle="270.00" width="2.8" length="5.5"/>
        <space x="2778.00" y="1079.20" angle="270.00" width="2.8" length="5.5"/>
        <space x="2778.00" y="1076.00" angle="270.00" width="2.8" length="5.5"/>
        <space x="2778.00" y="1072.80" angle="270.00" width="2.8" length="5.5"/>
        <space x="2778.00" y="1069.60" angle="270.00" width="2.8" length="5.5"/>
        <space x="2755.00" y="1130.40" angle="90.00" width="2.8" length="5.5"/>
        <space x="2755.00" y="1127.20" angle="90.00" width="2.8" length="5.5"/>
        <space x="2755.00" y="1124.00" angle="90.00" width="2.8" length="5.5"/>
        <space x="2755.00" y="1120.80" angle="90.00" width="2.8" length="5.5"/>
        <space x="2755.00" y="1117.60" angle="90.00" width="2.8" length="5.5"/>
        <space x="2755.00" y="1114.40" angle="90.00" width="2.8" length="5.5"/>
        <space x="2755.00" y="1111.20" angle="90.00" width="2.8" length="5.5"/>
        <space x="2755.00" y="1108.00" angle="90.00" width="2.8" length="5.5"/>
        <space x="2755.00" y="1104.80" angle="90.00" width="2.8" length="5.5"/>
        <space x="2755.00" y="1101.60" angle="90.00" width="2.8" length="5.5"/>
        <space x="2755.00" y="1098.40" angle="90.00" width="2.8" length="5.5"/>
        <space x="2755.00" y="1095.20" angle="90.00" width="2.8" length="5.5"/>
        <space x="2755.00" y="1092.00" angle="90.00" width="2.8" length="5.5"/>
        <space x="2755.00" y="1088.80" angle="90.00" width="2.8" length="5.5"/>
        <space x="2755.00" y="1085.60" angle="90.00" width="2.8" length="5.5"/>
        <space x="2755.00" y="1082.40" angle="90.00" width="2.8" length="5.5"/>
        <space x="2755.00" y="1079.20" angle="90.00" width="2.8" length="5.5"/>
        <space x="2755.00" y="1076.00" angle="90.00" width="2.8" length="5.5"/>
        <space x="2755.00" y="1072.80" angle="90.00" width="2.8" length="5.5"/>
        <space x="2755.00" y="1069.60" angle="90.00" width="2.8" length="5.5"/>
    </parkingArea>
    <poly id="floor_off_street_3" color="40,40,40" fill="true" layer="0" shape="2735.00,2612.00 2735.00,2655.00 2665.00,2655.00 2665.00,2612.00"/>
    <poly id="driveway_off_street_3" color="40,40,40" fill="true" layer="1" shape="2704.00,2605.00 2704.00,2612.00 2696.00,2612.00 2696.00,2605.00"/>
    <poly id="wall_off_street_3" color="200,200,200" fill="false" lineWidth="2" layer="2" shape="2704.00,2612.00 2735.00,2612.00 2735.00,2655.00 2665.00,2655.00 2665.00,2612.00 2696.00,2612.00"/>
    <parkingArea id="off_street_3" lane="O13N13_0" startPos="98.5" endPos="101.5" roadsideCapacity="0" onRoad="false">
        <space x="2730.40" y="2622.00" angle="0.00" width="2.8" length="5.5"/>
        <space x="2727.20" y="2622.00" angle="0.00" width="2.8" length="5.5"/>
        <space x="2724.00" y="2622.00" angle="0.00" width="2.8" length="5.5"/>
        <space x="2720.80" y="2622.00" angle="0.00" width="2.8" length="5.5"/>
        <space x="2717.60" y="2622.00" angle="0.00" width="2.8" length="5.5"/>
        <space x="2714.40" y="2622.00" angle="0.00" width="2.8" length="5.5"/>
        <space x="2711.20" y="2622.00" angle="0.00" width="2.8" length="5.5"/>
        <space x="2708.00" y="2622.00" angle="0.00" width="2.8" length="5.5"/>
        <space x="2704.80" y="2622.00" angle="0.00" width="2.8" length="5.5"/>
        <space x="2695.20" y="2622.00" angle="0.00" width="2.8" length="5.5"/>
        <space x="2692.00" y="2622.00" angle="0.00" width="2.8" length="5.5"/>
        <space x="2688.80" y="2622.00" angle="0.00" width="2.8" length="5.5"/>
        <space x="2685.60" y="2622.00" angle="0.00" width="2.8" length="5.5"/>
        <space x="2682.40" y="2622.00" angle="0.00" width="2.8" length="5.5"/>
        <space x="2679.20" y="2622.00" angle="0.00" width="2.8" length="5.5"/>
        <space x="2676.00" y="2622.00" angle="0.00" width="2.8" length="5.5"/>
        <space x="2672.80" y="2622.00" angle="0.00" width="2.8" length="5.5"/>
        <space x="2669.60" y="2622.00" angle="0.00" width="2.8" length="5.5"/>
        <space x="2730.40" y="2645.00" angle="180.00" width="2.8" length="5.5"/>
        <space x="2727.20" y="2645.00" angle="180.00" width="2.8" length="5.5"/>
        <space x="2724.00" y="2645.00" angle="180.00" width="2.8" length="5.5"/>
        <space x="2720.80" y="2645.00" angle="180.00" width="2.8" length="5.5"/>
        <space x="2717.60" y="2645.00" angle="180.00" width="2.8" length="5.5"/>
        <space x="2714.40" y="2645.00" angle="180.00" width="2.8" length="5.5"/>
        <space x="2711.20" y="2645.00" angle="180.00" width="2.8" length="5.5"/>
        <space x="2708.00" y="2645.00" angle="180.00" width="2.8" length="5.5"/>
        <space x="2704.80" y="2645.00" angle="180.00" width="2.8" length="5.5"/>
        <space x="2701.60" y="2645.00" angle="180.00" width="2.8" length="5.5"/>
        <space x="2698.40" y="2645.00" angle="180.00" width="2.8" length="5.5"/>
        <space x="2695.20" y="2645.00" angle="180.00" width="2.8" length="5.5"/>
        <space x="2692.00" y="2645.00" angle="180.00" width="2.8" length="5.5"/>
        <space x="2688.80" y="2645.00" angle="180.00" width="2.8" length="5.5"/>
        <space x="2685.60" y="2645.00" angle="180.00" width="2.8" length="5.5"/>
        <space x="2682.40" y="2645.00" angle="180.00" width="2.8" length="5.5"/>
        <space x="2679.20" y="2645.00" angle="180.00" width="2.8" length="5.5"/>
        <space x="2676.00" y="2645.00" angle="180.00" width="2.8" length="5.5"/>
        <space x="2672.80" y="2645.00" angle="180.00" width="2.8" length="5.5"/>
        <space x="2669.60" y="2645.00" angle="180.00" width="2.8" length="5.5"/>
    </parkingArea>
    <poly id="floor_off_street_4" color="40,40,40" fill="true" layer="0" shape="2465.00,1788.00 2465.00,1745.00 2535.00,1745.00 2535.00,1788.00"/>
    <poly id="driveway_off_street_4" color="40,40,40" fill="true" layer="1" shape="2496.00,1795.00 2496.00,1788.00 2504.00,1788.00 2504.00,1795.00"/>
    <poly id="wall_off_street_4" color="200,200,200" fill="false" lineWidth="2" layer="2" shape="2496.00,1788.00 2465.00,1788.00 2465.00,1745.00 2535.00,1745.00 2535.00,1788.00 2504.00,1788.00"/>
    <parkingArea id="off_street_4" lane="M9N9_0" startPos="98.5" endPos="101.5" roadsideCapacity="0" onRoad="false">
        <space x="2469.60" y="1778.00" angle="180.00" width="2.8" length="5.5"/>
        <space x="2472.80" y="1778.00" angle="180.00" width="2.8" length="5.5"/>
        <space x="2476.00" y="1778.00" angle="180.00" width="2.8" length="5.5"/>
        <space x="2479.20" y="1778.00" angle="180.00" width="2.8" length="5.5"/>
        <space x="2482.40" y="1778.00" angle="180.00" width="2.8" length="5.5"/>
        <space x="2485.60" y="1778.00" angle="180.00" width="2.8" length="5.5"/>
        <space x="2488.80" y="1778.00" angle="180.00" width="2.8" length="5.5"/>
        <space x="2492.00" y="1778.00" angle="180.00" width="2.8" length="5.5"/>
        <space x="2495.20" y="1778.00" angle="180.00" width="2.8" length="5.5"/>
        <space x="2504.80" y="1778.00" angle="180.00" width="2.8" length="5.5"/>
        <space x="2508.00" y="1778.00" angle="180.00" width="2.8" length="5.5"/>
        <space x="2511.20" y="1778.00" angle="180.00" width="2.8" length="5.5"/>
        <space x="2514.40" y="1778.00" angle="180.00" width="2.8" length="5.5"/>
        <space x="2517.60" y="1778.00" angle="180.00" width="2.8" length="5.5"/>
        <space x="2520.80" y="1778.00" angle="180.00" width="2.8" length="5.5"/>
        <space x="2524.00" y="1778.00" angle="180.00" width="2.8" length="5.5"/>
        <space x="2527.20" y="1778.00" angle="180.00" width="2.8" length="5.5"/>
        <space x="2530.40" y="1778.00" angle="180.00" width="2.8" length="5.5"/>
        <space x="2469.60" y="1755.00" angle="0.00" width="2.8" length="5.5"/>
        <space x="2472.80" y="1755.00" angle="0.00" width="2.8" length="5.5"/>
        <space x="2476.00" y="1755.00" angle="0.00" width="2.8" length="5.5"/>
        <space x="2479.20" y="1755.00" angle="0.00" width="2.8" length="5.5"/>
        <space x="2482.40" y="1755.00" angle="0.00" width="2.8" length="5.5"/>
        <space x="2485.60" y="1755.00" angle="0.00" width="2.8" length="5.5"/>
        <space x="2488.80" y="1755.00" angle="0.00" width="2.8" length="5.5"/>
        <space x="2492.00" y="1755.00" angle="0.00" width="2.8" length="5.5"/>
        <space x="2495.20" y="1755.00" angle="0.00" width="2.8" length="5.5"/>
        <space x="2498.40" y="1755.00" angle="0.00" width="2.8" length="5.5"/>
        <space x="2501.60" y="1755.00" angle="0.00" width="2.8" length="5.5"/>
        <space x="2504.80" y="1755.00" angle="0.00" width="2.8" length="5.5"/>
        <space x="2508.00" y="1755.00" angle="0.00" width="2.8" length="5.5"/>
        <space x="2511.20" y="1755.00" angle="0.00" width="2.8" length="5.5"/>
        <space x="2514.40" y="1755.00" angle="0.00" width="2.8" length="5.5"/>
        <space x="2517.60" y="1755.00" angle="0.00" width="2.8" length="5.5"/>
        <space x="2520.80" y="1755.00" angle="0.00" width="2.8" length="5.5"/>
        <space x="2524.00" y="1755.00" angle="0.00" width="2.8" length="5.5"/>
        <space x="2527.20" y="1755.00" angle="0.00" width="2.8" length="5.5"/>
        <space x="2530.40" y="1755.00" angle="0.00" width="2.8" length="5.5"/>
    </parkingArea>
    <poly id="floor_off_street_5" color="40,40,40" fill="true" layer="0" shape="935.00,2612.00 935.00,2655.00 865.00,2655.00 865.00,2612.00"/>
    <poly id="driveway_off_street_5" color="40,40,40" fill="true" layer="1" shape="904.00,2605.00 904.00,2612.00 896.00,2612.00 896.00,2605.00"/>
    <poly id="wall_off_street_5" color="200,200,200" fill="false" lineWidth="2" layer="2" shape="904.00,2612.00 935.00,2612.00 935.00,2655.00 865.00,2655.00 865.00,2612.00 896.00,2612.00"/>
    <parkingArea id="off_street_5" lane="F13E13_0" startPos="98.5" endPos="101.5" roadsideCapacity="0" onRoad="false">
        <space x="930.40" y="2622.00" angle="0.00" width="2.8" length="5.5"/>
        <space x="927.20" y="2622.00" angle="0.00" width="2.8" length="5.5"/>
        <space x="924.00" y="2622.00" angle="0.00" width="2.8" length="5.5"/>
        <space x="920.80" y="2622.00" angle="0.00" width="2.8" length="5.5"/>
        <space x="917.60" y="2622.00" angle="0.00" width="2.8" length="5.5"/>
        <space x="914.40" y="2622.00" angle="0.00" width="2.8" length="5.5"/>
        <space x="911.20" y="2622.00" angle="0.00" width="2.8" length="5.5"/>
        <space x="908.00" y="2622.00" angle="0.00" width="2.8" length="5.5"/>
        <space x="904.80" y="2622.00" angle="0.00" width="2.8" length="5.5"/>
        <space x="895.20" y="2622.00" angle="0.00" width="2.8" length="5.5"/>
        <space x="892.00" y="2622.00" angle="0.00" width="2.8" length="5.5"/>
        <space x="888.80" y="2622.00" angle="0.00" width="2.8" length="5.5"/>
        <space x="885.60" y="2622.00" angle="0.00" width="2.8" length="5.5"/>
        <space x="882.40" y="2622.00" angle="0.00" width="2.8" length="5.5"/>
        <space x="879.20" y="2622.00" angle="0.00" width="2.8" length="5.5"/>
        <space x="876.00" y="2622.00" angle="0.00" width="2.8" length="5.5"/>
        <space x="872.80" y="2622.00" angle="0.00" width="2.8" length="5.5"/>
        <space x="869.60" y="2622.00" angle="0.00" width="2.8" length="5.5"/>
        <space x="930.40" y="2645.00" angle="180.00" width="2.8" length="5.5"/>
        <space x="927.20" y="2645.00" angle="180.00" width="2.8" length="5.5"/>
        <space x="924.00" y="2645.00" angle="180.00" width="2.8" length="5.5"/>
        <space x="920.80" y="2645.00" angle="180.00" width="2.8" length="5.5"/>
        <space x="917.60" y="2645.00" angle="180.00" width="2.8" length="5.5"/>
        <space x="914.40" y="2645.00" angle="180.00" width="2.8" length="5.5"/>
        <space x="911.20" y="2645.00" angle="180.00" width="2.8" length="5.5"/>
        <space x="908.00" y="2645.00" angle="180.00" width="2.8" length="5.5"/>
        <space x="904.80" y="2645.00" angle="180.00" width="2.8" length="5.5"/>
        <space x="901.60" y="2645.00" angle="180.00" width="2.8" length="5.5"/>
        <space x="898.40" y="2645.00" angle="180.00" width="2.8" length="5.5"/>
        <space x="895.20" y="2645.00" angle="180.00" width="2.8" length="5.5"/>
        <space x="892.00" y="2645.00" angle="180.00" width="2.8" length="5.5"/>
        <space x="888.80" y="2645.00" angle="180.00" width="2.8" length="5.5"/>
        <space x="885.60" y="2645.00" angle="180.00" width="2.8" length="5.5"/>
        <space x="882.40" y="2645.00" angle="180.00" width="2.8" length="5.5"/>
        <space x="879.20" y="2645.00" angle="180.00" width="2.8" length="5.5"/>
        <space x="876.00" y="2645.00" angle="180.00" width="2.8" length="5.5"/>
        <space x="872.80" y="2645.00" angle="180.00" width="2.8" length="5.5"/>
        <space x="869.60" y="2645.00" angle="180.00" width="2.8" length="5.5"/>
    </parkingArea>
    <poly id="floor_off_street_6" color="40,40,40" fill="true" layer="0" shape="2012.00,265.00 2055.00,265.00 2055.00,335.00 2012.00,335.00"/>
    <poly id="driveway_off_street_6" color="40,40,40" fill="true" layer="1" shape="2005.00,296.00 2012.00,296.00 2012.00,304.00 2005.00,304.00"/>
    <poly id="wall_off_street_6" color="200,200,200" fill="false" lineWidth="2" layer="2" shape="2012.00,296.00 2012.00,265.00 2055.00,265.00 2055.00,335.00 2012.00,335.00 2012.00,304.00"/>
    <parkingArea id="off_street_6" lane="K1K2_0" startPos="98.5" endPos="101.5" roadsideCapacity="0" onRoad="false">
        <space x="2022.00" y="269.60" angle="90.00" width="2.8" length="5.5"/>
        <space x="2022.00" y="272.80" angle="90.00" width="2.8" length="5.5"/>
        <space x="2022.00" y="276.00" angle="90.00" width="2.8" length="5.5"/>
        <space x="2022.00" y="279.20" angle="90.00" width="2.8" length="5.5"/>
        <space x="2022.00" y="282.40" angle="90.00" width="2.8" length="5.5"/>
        <space x="2022.00" y="285.60" angle="90.00" width="2.8" length="5.5"/>
        <space x="2022.00" y="288.80" angle="90.00" width="2.8" length="5.5"/>
        <space x="2022.00" y="292.00" angle="90.00" width="2.8" length="5.5"/>
        <space x="2022.00" y="295.20" angle="90.00" width="2.8" length="5.5"/>
        <space x="2022.00" y="304.80" angle="90.00" width="2.8" length="5.5"/>
        <space x="2022.00" y="308.00" angle="90.00" width="2.8" length="5.5"/>
        <space x="2022.00" y="311.20" angle="90.00" width="2.8" length="5.5"/>
        <space x="2022.00" y="314.40" angle="90.00" width="2.8" length="5.5"/>
        <space x="2022.00" y="317.60" angle="90.00" width="2.8" length="5.5"/>
        <space x="2022.00" y="320.80" angle="90.00" width="2.8" length="5.5"/>
        <space x="2022.00" y="324.00" angle="90.00" width="2.8" length="5.5"/>
        <space x="2022.00" y="327.20" angle="90.00" width="2.8" length="5.5"/>
        <space x="2022.00" y="330.40" angle="90.00" width="2.8" length="5.5"/>
        <space x="2045.00" y="269.60" angle="270.00" width="2.8" length="5.5"/>
        <space x="2045.00" y="272.80" angle="270.00" width="2.8" length="5.5"/>
        <space x="2045.00" y="276.00" angle="270.00" width="2.8" length="5.5"/>
        <space x="2045.00" y="279.20" angle="270.00" width="2.8" length="5.5"/>
        <space x="2045.00" y="282.40" angle="270.00" width="2.8" length="5.5"/>
        <space x="2045.00" y="285.60" angle="270.00" width="2.8" length="5.5"/>
        <space x="2045.00" y="288.80" angle="270.00" width="2.8" length="5.5"/>
        <space x="2045.00" y="292.00" angle="270.00" width="2.8" length="5.5"/>
        <space x="2045.00" y="295.20" angle="270.00" width="2.8" length="5.5"/>
        <space x="2045.00" y="298.40" angle="270.00" width="2.8" length="5.5"/>
        <space x="2045.00" y="301.60" angle="270.00" width="2.8" length="5.5"/>
        <space x="2045.00" y="304.80" angle="270.00" width="2.8" length="5.5"/>
        <space x="2045.00" y="308.00" angle="270.00" width="2.8" length="5.5"/>
        <space x="2045.00" y="311.20" angle="270.00" width="2.8" length="5.5"/>
        <space x="2045.00" y="314.40" angle="270.00" width="2.8" length="5.5"/>
        <space x="2045.00" y="317.60" angle="270.00" width="2.8" length="5.5"/>
        <space x="2045.00" y="320.80" angle="270.00" width="2.8" length="5.5"/>
        <space x="2045.00" y="324.00" angle="270.00" width="2.8" length="5.5"/>
        <space x="2045.00" y="327.20" angle="270.00" width="2.8" length="5.5"/>
        <space x="2045.00" y="330.40" angle="270.00" width="2.8" length="5.5"/>
    </parkingArea>
    <poly id="floor_off_street_7" color="40,40,40" fill="true" layer="0" shape="2735.00,1212.00 2735.00,1255.00 2665.00,1255.00 2665.00,1212.00"/>
    <poly id="driveway_off_street_7" color="40,40,40" fill="true" layer="1" shape="2704.00,1205.00 2704.00,1212.00 2696.00,1212.00 2696.00,1205.00"/>
    <poly id="wall_off_street_7" color="200,200,200" fill="false" lineWidth="2" layer="2" shape="2704.00,1212.00 2735.00,1212.00 2735.00,1255.00 2665.00,1255.00 2665.00,1212.00 2696.00,1212.00"/>
    <parkingArea id="off_street_7" lane="O6N6_0" startPos="98.5" endPos="101.5" roadsideCapacity="0" onRoad="false">
        <space x="2730.40" y="1222.00" angle="0.00" width="2.8" length="5.5"/>
        <space x="2727.20" y="1222.00" angle="0.00" width="2.8" length="5.5"/>
        <space x="2724.00" y="1222.00" angle="0.00" width="2.8" length="5.5"/>
        <space x="2720.80" y="1222.00" angle="0.00" width="2.8" length="5.5"/>
        <space x="2717.60" y="1222.00" angle="0.00" width="2.8" length="5.5"/>
        <space x="2714.40" y="1222.00" angle="0.00" width="2.8" length="5.5"/>
        <space x="2711.20" y="1222.00" angle="0.00" width="2.8" length="5.5"/>
        <space x="2708.00" y="1222.00" angle="0.00" width="2.8" length="5.5"/>
        <space x="2704.80" y="1222.00" angle="0.00" width="2.8" length="5.5"/>
        <space x="2695.20" y="1222.00" angle="0.00" width="2.8" length="5.5"/>
        <space x="2692.00" y="1222.00" angle="0.00" width="2.8" length="5.5"/>
        <space x="2688.80" y="1222.00" angle="0.00" width="2.8" length="5.5"/>
        <space x="2685.60" y="1222.00" angle="0.00" width="2.8" length="5.5"/>
        <space x="2682.40" y="1222.00" angle="0.00" width="2.8" length="5.5"/>
        <space x="2679.20" y="1222.00" angle="0.00" width="2.8" length="5.5"/>
        <space x="2676.00" y="1222.00" angle="0.00" width="2.8" length="5.5"/>
        <space x="2672.80" y="1222.00" angle="0.00" width="2.8" length="5.5"/>
        <space x="2669.60" y="1222.00" angle="0.00" width="2.8" length="5.5"/>
        <space x="2730.40" y="1245.00" angle="180.00" width="2.8" length="5.5"/>
        <space x="2727.20" y="1245.00" angle="180.00" width="2.8" length="5.5"/>
        <space x="2724.00" y="1245.00" angle="180.00" width="2.8" length="5.5"/>
        <space x="2720.80" y="1245.00" angle="180.00" width="2.8" length="5.5"/>
        <space x="2717.60" y="1245.00" angle="180.00" width="2.8" length="5.5"/>
        <space x="2714.40" y="1245.00" angle="180.00" width="2.8" length="5.5"/>
        <space x="2711.20" y="1245.00" angle="180.00" width="2.8" length="5.5"/>
        <space x="2708.00" y="1245.00" angle="180.00" width="2.8" length="5.5"/>
        <space x="2704.80" y="1245.00" angle="180.00" width="2.8" length="5.5"/>
        <space x="2701.60" y="1245.00" angle="180.00" width="2.8" length="5.5"/>
        <space x="2698.40" y="1245.00" angle="180.00" width="2.8" length="5.5"/>
        <space x="2695.20" y="1245.00" angle="180.00" width="2.8" length="5.5"/>
        <space x="2692.00" y="1245.00" angle="180.00" width="2.8" length="5.5"/>
        <space x="2688.80" y="1245.00" angle="180.00" width="2.8" length="5.5"/>
        <space x="2685.60" y="1245.00" angle="180.00" width="2.8" length="5.5"/>
        <space x="2682.40" y="1245.00" angle="180.00" width="2.8" length="5.5"/>
        <space x="2679.20" y="1245.00" angle="180.00" width="2.8" length="5.5"/>
        <space x="2676.00" y="1245.00" angle="180.00" width="2.8" length="5.5"/>
        <space x="2672.80" y="1245.00" angle="180.00" width="2.8" length="5.5"/>
        <space x="2669.60" y="1245.00" angle="180.00" width="2.8" length="5.5"/>
    </parkingArea>
    <poly id="floor_off_street_8" color="40,40,40" fill="true" layer="0" shape="1465.00,988.00 1465.00,945.00 1535.00,945.00 1535.00,988.00"/>
    <poly id="driveway_off_street_8" color="40,40,40" fill="true" layer="1" shape="1496.00,995.00 1496.00,988.00 1504.00,988.00 1504.00,995.00"/>
    <poly id="wall_off_street_8" color="200,200,200" fill="false" lineWidth="2" layer="2" shape="1496.00,988.00 1465.00,988.00 1465.00,945.00 1535.00,945.00 1535.00,988.00 1504.00,988.00"/>
    <parkingArea id="off_street_8" lane="H5I5_0" startPos="98.5" endPos="101.5" roadsideCapacity="0" onRoad="false">
        <space x="1469.60" y="978.00" angle="180.00" width="2.8" length="5.5"/>