<?xml version="1.0" encoding="UTF-8"?>
<additional>
    <poly id="floor_off_street_0" color="40,40,40" fill="true" layer="0" shape="135.00,412.00 135.00,455.00 65.00,455.00 65.00,412.00"/>
    <poly id="driveway_off_street_0" color="40,40,40" fill="true" layer="1" shape="104.00,405.00 104.00,412.00 96.00,412.00 96.00,405.00"/>
    <poly id="wall_off_street_0" color="200,200,200" fill="false" lineWidth="2" layer="2" shape="104.00,412.00 135.00,412.00 135.00,455.00 65.00,455.00 65.00,412.00 96.00,412.00"/>
    <parkingArea id="off_street_0" lane="B2A2_0" startPos="98.5" endPos="101.5" roadsideCapacity="0" onRoad="false">
        <space x="130.40" y="422.00" angle="0.00" width="2.8" length="5.5"/>
        <space x="127.20" y="422.00" angle="0.00" width="2.8" length="5.5"/>
        <space x="124.00" y="422.00" angle="0.00" width="2.8" length="5.5"/>
        <space x="120.80" y="422.00" angle="0.00" width="2.8" length="5.5"/>
        <space x="117.60" y="422.00" angle="0.00" width="2.8" length="5.5"/>
        <space x="114.40" y="422.00" angle="0.00" width="2.8" length="5.5"/>
        <space x="111.20" y="422.00" angle="0.00" width="2.8" length="5.5"/>
        <space x="108.00" y="422.00" angle="0.00" width="2.8" length="5.5"/>
        <space x="104.80" y="422.00" angle="0.00" width="2.8" length="5.5"/>
        <space x="95.20" y="422.00" angle="0.00" width="2.8" length="5.5"/>
        <space x="92.00" y="422.00" angle="0.00" width="2.8" length="5.5"/>
        <space x="88.80" y="422.00" angle="0.00" width="2.8" length="5.5"/>
        <space x="85.60" y="422.00" angle="0.00" width="2.8" length="5.5"/>
        <space x="82.40" y="422.00" angle="0.00" width="2.8" length="5.5"/>
        <space x="79.20" y="422.00" angle="0.00" width="2.8" length="5.5"/>
        <space x="76.00" y="422.00" angle="0.00" width="2.8" length="5.5"/>
        <space x="72.80" y="422.00" angle="0.00" width="2.8" length="5.5"/>
        <space x="69.60" y="422.00" angle="0.00" width="2.8" length="5.5"/>
        <space x="130.40" y="445.00" angle="180.00" width="2.8" length="5.5"/>
        <space x="127.20" y="445.00" angle="180.00" width="2.8" length="5.5"/>
        <space x="124.00" y="445.00" angle="180.00" width="2.8" length="5.5"/>
        <space x="120.80" y="445.00" angle="180.00" width="2.8" length="5.5"/>
        <space x="117.60" y="445.00" angle="180.00" width="2.8" length="5.5"/>
        <space x="114.40" y="445.00" angle="180.00" width="2.8" length="5.5"/>
        <space x="111.20" y="445.00" angle="180.00" width="2.8" length="5.5"/>
        <space x="108.00" y="445.00" angle="180.00" width="2.8" length="5.5"/>
        <space x="104.80" y="445.00" angle="180.00" width="2.8" length="5.5"/>
        <space x="101.60" y="445.00" angle="180.00" width="2.8" length="5.5"/>
        <space x="98.40" y="445.00" angle="180.00" width="2.8" length="5.5"/>
        <space x="95.20" y="445.00" angle="180.00" width="2.8" length="5.5"/>
        <space x="92.00" y="445.00" angle="180.00" width="2.8" length="5.5"/>
        <space x="88.80" y="445.00" angle="180.00" width="2.8" length="5.5"/>
        <space x="85.60" y="445.00" angle="180.00" width="2.8" length="5.5"/>
        <space x="82.40" y="445.00" angle="180.00" width="2.8" length="5.5"/>
        <space x="79.20" y="445.00" angle="180.00" width="2.8" length="5.5"/>
        <space x="76.00" y="445.00" angle="180.00" width="2.8" length="5.5"/>
        <space x="72.80" y="445.00" angle="180.00" width="2.8" length="5.5"/>
        <space x="69.60" y="445.00" angle="180.00" width="2.8" length="5.5"/>
    </parkingArea>
    <poly id="floor_off_street_1" color="40,40,40" fill="true" layer="0" shape="812.00,2665.00 855.00,2665.00 855.00,2735.00 812.00,2735.00"/>
    <poly id="driveway_off_street_1" color="40,40,40" fill="true" layer="1" shape="805.00,2696.00 812.00,2696.00 812.00,2704.00 805.00,2704.00"/>
    <poly id="wall_off_street_1" color="200,200,200" fill="false" lineWidth="2" layer="2" shape="812.00,2696.00 812.00,2665.00 855.00,2665.00 855.00,2735.00 812.00,2735.00 812.00,2704.00"/>
    <parkingArea id="off_street_1" lane="E13E14_0" startPos="98.5" endPos="101.5" roadsideCapacity="0" onRoad="false">
        <space x="822.00" y="2669.60" angle="90.00" width="2.8" length="5.5"/>
        <space x="822.00" y="2672.80" angle="90.00" width="2.8" length="5.5"/>
        <space x="822.00" y="2676.00" angle="90.00" width="2.8" length="5.5"/>
        <space x="822.00" y="2679.20" angle="90.00" width="2.8" length="5.5"/>
        <space x="822.00" y="2682.40" angle="90.00" width="2.8" length="5.5"/>
        <space x="822.00" y="2685.60" angle="90.00" width="2.8" length="5.5"/>
        <space x="822.00" y="2688.80" angle="90.00" width="2.8" length="5.5"/>
        <space x="822.00" y="2692.00" angle="90.00" width="2.8" length="5.5"/>
        <space x="822.00" y="2695.20" angle="90.00" width="2.8" length="5.5"/>
        <space x="822.00" y="2704.80" angle="90.00" width="2.8" length="5.5"/>
        <space x="822.00" y="2708.00" angle="90.00" width="2.8" length="5.5"/>
        <space x="822.00" y="2711.20" angle="90.00" width="2.8" length="5.5"/>
        <space x="822.00" y="2714.40" angle="90.00" width="2.8" length="5.5"/>
        <space x="822.00" y="2717.60" angle="90.00" width="2.8" length="5.5"/>
        <space x="822.00" y="2720.80" angle="90.00" width="2.8" length="5.5"/>
        <space x="822.00" y="2724.00" angle="90.00" width="2.8" length="5.5"/>
        <space x="822.00" y="2727.20" angle="90.00" width="2.8" length="5.5"/>
        <space x="822.00" y="2730.40" angle="90.00" width="2.8" length="5.5"/>
        <space x="845.00" y="2669.60" angle="270.00" width="2.8" length="5.5"/>
        <space x="845.00" y="2672.80" angle="270.00" width="2.8" length="5.5"/>
        <space x="845.00" y="2676.00" angle="270.00" width="2.8" length="5.5"/>
        <space x="845.00" y="2679.20" angle="270.00" width="2.8" length="5.5"/>
        <space x="845.00" y="2682.40" angle="270.00" width="2.8" length="5.5"/>
        <space x="845.00" y="2685.60" angle="270.00" width="2.8" length="5.5"/>
        <space x="845.00" y="2688.80" angle="270.00" width="2.8" length="5.5"/>
        <space x="845.00" y="2692.00" angle="270.00" width="2.8" length="5.5"/>
        <space x="845.00" y="2695.20" angle="270.00" width="2.8" length="5.5"/>
        <space x="845.00" y="2698.40" angle="270.00" width="2.8" length="5.5"/>
        <space x="845.00" y="2701.60" angle="270.00" width="2.8" length="5.5"/>
        <space x="845.00" y="2704.80" angle="270.00" width="2.8" length="5.5"/>
        <space x="845.00" y="2708.00" angle="270.00" width="2.8" length="5.5"/>
        <space x="845.00" y="2711.20" angle="270.00" width="2.8" length="5.5"/>
        <space x="845.00" y="2714.40" angle="270.00" width="2.8" length="5.5"/>
        <space x="845.00" y="2717.60" angle="270.00" width="2.8" length="5.5"/>
        <space x="845.00" y="2720.80" angle="270.00" width="2.8" length="5.5"/>
        <space x="845.00" y="2724.00" angle="270.00" width="2.8" length="5.5"/>
        <space x="845.00" y="2727.20" angle="270.00" width="2.8" length="5.5"/>
        <space x="845.00" y="2730.40" angle="270.00" width="2.8" length="5.5"/>
    </parkingArea>
    <poly id="floor_off_street_2" color="40,40,40" fill="true" layer="0" shape="1412.00,65.00 1455.00,65.00 1455.00,135.00 1412.00,135.00"/>
    <poly id="driveway_off_street_2" color="40,40,40" fill="true" layer="1" shape="1405.00,96.00 1412.00,96.00 1412.00,104.00 1405.00,104.00"/>
    <poly id="wall_off_street_2" color="200,200,200" fill="false" lineWidth="2" layer="2" shape="1412.00,96.00 1412.00,65.00 1455.00,65.00 1455.00,135.00 1412.00,135.00 1412.00,104.00"/>
    <parkingArea id="off_street_2" lane="H0H1_0" startPos="98.5" endPos="101.5" roadsideCapacity="0" onRoad="false">
        <space x="1422.00" y="69.60" angle="90.00" width="2.8" length="5.5"/>
        <space x="1422.00" y="72.80" angle="90.00" width="2.8" length="5.5"/>
        <space x="1422.00" y="76.00" angle="90.00" width="2.8" length="5.5"/>
        <space x="1422.00" y="79.20" angle="90.00" width="2.8" length="5.5"/>
        <space x="1422.00" y="82.40" angle="90.00" width="2.8" length="5.5"/>
        <space x="1422.00" y="85.60" angle="90.00" width="2.8" length="5.5"/>
        <space x="1422.00" y="88.80" angle="90.00" width="2.8" length="5.5"/>
        <space x="1422.00" y="92.00" angle="90.00" width="2.8" length="5.5"/>
        <space x="1422.00" y="95.20" angle="90.00" width="2.8" length="5.5"/>
        <space x="1422.00" y="104.80" angle="90.00" width="2.8" length="5.5"/>
        <space x="1422.00" y="108.00" angle="90.00" width="2.8" length="5.5"/>
        <space x="1422.00" y="111.20" angle="90.00" width="2.8" length="5.5"/>
        <space x="1422.00" y="114.40" angle="90.00" width="2.8" length="5.5"/>
        <space x="1422.00" y="117.60" angle="90.00" width="2.8" length="5.5"/>
        <space x="1422.00" y="120.80" angle="90.00" width="2.8" length="5.5"/>
        <space x="1422.00" y="124.00" angle="90.00" width="2.8" length="5.5"/>
        <space x="1422.00" y="127.20" angle="90.00" width="2.8" length="5.5"/>
        <space x="1422.00" y="130.40" angle="90.00" width="2.8" length="5.5"/>
        <space x="1445.00" y="69.60" angle="270.00" width="2.8" length="5.5"/>
        <space x="1445.00" y="72.80" angle="270.00" width="2.8" length="5.5"/>
        <space x="1445.00" y="76.00" angle="270.00" width="2.8" length="5.5"/>
        <space x="1445.00" y="79.20" angle="270.00" width="2.8" length="5.5"/>
        <space x="1445.00" y="82.40" angle="270.00" width="2.8" length="5.5"/>
        <space x="1445.00" y="85.60" angle="270.00" width="2.8" length="5.5"/>
        <space x="1445.00" y="88.80" angle="270.00" width="2.8" length="5.5"/>
        <space x="1445.00" y="92.00" angle="270.00" width="2.8" length="5.5"/>
        <space x="1445.00" y="95.20" angle="270.00" width="2.8" length="5.5"/>
        <space x="1445.00" y="98.40" angle="270.00" width="2.8" length="5.5"/>
        <space x="1445.00" y="101.60" angle="270.00" width="2.8" length="5.5"/>
        <space x="1445.00" y="104.80" angle="270.00" width="2.8" length="5.5"/>
        <space x="1445.00" y="108.00" angle="270.00" width="2.8" length="5.5"/>
        <space x="1445.00" y="111.20" angle="270.00" width="2.8" length="5.5"/>
        <space x="1445.00" y="114.40" angle="270.00" width="2.8" length="5.5"/>
        <space x="1445.00" y="117.60" angle="270.00" width="2.8" length="5.5"/>
        <space x="1445.00" y="120.80" angle="270.00" width="2.8" length="5.5"/>
        <space x="1445.00" y="124.00" angle="270.00" width="2.8" length="5.5"/>
        <space x="1445.00" y="127.20" angle="270.00" width="2.8" length="5.5"/>
        <space x="1445.00" y="130.40" angle="270.00" width="2.8" length="5.5"/>
    </parkingArea>
    <poly id="floor_off_street_3" color="40,40,40" fill="true" layer="0" shape="1812.00,2465.00 1855.00,2465.00 1855.00,2535.00 1812.00,2535.00"/>
    <poly id="driveway_off_street_3" color="40,40,40" fill="true" layer="1" shape="1805.00,2496.00 1812.00,2496.00 1812.00,2504.00 1805.00,2504.00"/>
    <poly id="wall_off_street_3" color="200,200,200" fill="false" lineWidth="2" layer="2" shape="1812.00,2496.00 1812.00,2465.00 1855.00,2465.00 1855.00,2535.00 1812.00,2535.00 1812.00,2504.00"/>
    <parkingArea id="off_street_3" lane="J12J13_0" startPos="98.5" endPos="101.5" roadsideCapacity="0" onRoad="false">
        <space x="1822.00" y="2469.60" angle="90.00" width="2.8" length="5.5"/>
        <space x="1822.00" y="2472.80" angle="90.00" width="2.8" length="5.5"/>
        <space x="1822.00" y="2476.00" angle="90.00" width="2.8" length="5.5"/>
        <space x="1822.00" y="2479.20" angle="90.00" width="2.8" length="5.5"/>
        <space x="1822.00" y="2482.40" angle="90.00" width="2.8" length="5.5"/>
        <space x="1822.00" y="2485.60" angle="90.00" width="2.8" length="5.5"/>
        <space x="1822.00" y="2488.80" angle="90.00" width="2.8" length="5.5"/>
        <space x="1822.00" y="2492.00" angle="90.00" width="2.8" length="5.5"/>
        <space x="1822.00" y="2495.20" angle="90.00" width="2.8" length="5.5"/>
        <space x="1822.00" y="2504.80" angle="90.00" width="2.8" length="5.5"/>
        <space x="1822.00" y="2508.00" angle="90.00" width="2.8" length="5.5"/>
        <space x="1822.00" y="2511.20" angle="90.00" width="2.8" length="5.5"/>
        <space x="1822.00" y="2514.40" angle="90.00" width="2.8" length="5.5"/>
        <space x="1822.00" y="2517.60" angle="90.00" width="2.8" length="5.5"/>
        <space x="1822.00" y="2520.80" angle="90.00" width="2.8" length="5.5"/>
        <space x="1822.00" y="2524.00" angle="90.00" width="2.8" length="5.5"/>
        <space x="1822.00" y="2527.20" angle="90.00" width="2.8" length="5.5"/>
        <space x="1822.00" y="2530.40" angle="90.00" width="2.8" length="5.5"/>
        <space x="1845.00" y="2469.60" angle="270.00" width="2.8" length="5.5"/>
        <space x="1845.00" y="2472.80" angle="270.00" width="2.8" length="5.5"/>
        <space x="1845.00" y="2476.00" angle="270.00" width="2.8" length="5.5"/>
        <space x="1845.00" y="2479.20" angle="270.00" width="2.8" length="5.5"/>
        <space x="1845.00" y="2482.40" angle="270.00" width="2.8" length="5.5"/>
        <space x="1845.00" y="2485.60" angle="270.00" width="2.8" length="5.5"/>
        <space x="1845.00" y="2488.80" angle="270.00" width="2.8" length="5.5"/>
        <space x="1845.00" y="2492.00" angle="270.00" width="2.8" length="5.5"/>
        <space x="1845.00" y="2495.20" angle="270.00" width="2.8" length="5.5"/>
        <space x="1845.00" y="2498.40" angle="270.00" width="2.8" length="5.5"/>
        <space x="1845.00" y="2501.60" angle="270.00" width="2.8" length="5.5"/>
        <space x="1845.00" y="2504.80" angle="270.00" width="2.8" length="5.5"/>
        <space x="1845.00" y="2508.00" angle="270.00" width="2.8" length="5.5"/>
        <space x="1845.00" y="2511.20" angle="270.00" width="2.8" length="5.5"/>
        <space x="1845.00" y="2514.40" angle="270.00" width="2.8" length="5.5"/>
        <space x="1845.00" y="2517.60" angle="270.00" width="2.8" length="5.5"/>
        <space x="1845.00" y="2520.80" angle="270.00" width="2.8" length="5.5"/>
        <space x="1845.00" y="2524.00" angle="270.00" width="2.8" length="5.5"/>
        <space x="1845.00" y="2527.20" angle="270.00" width="2.8" length="5.5"/>
        <space x="1845.00" y="2530.40" angle="270.00" width="2.8" length="5.5"/>
    </parkingArea>
    <poly id="floor_off_street_4" color="40,40,40" fill="true" layer="0" shape="2012.00,1865.00 2055.00,1865.00 2055.00,1935.00 2012.00,1935.00"/>
    <poly id="driveway_off_street_4" color="40,40,40" fill="true" layer="1" shape="2005.00,1896.00 2012.00,1896.00 2012.00,1904.00 2005.00,1904.00"/>
    <poly id="wall_off_street_4" color="200,200,200" fill="false" lineWidth="2" layer="2" shape="2012.00,1896.00 2012.00,1865.00 2055.00,1865.00 2055.00,1935.00 2012.00,1935.00 2012.00,1904.00"/>
    <parkingArea id="off_street_4" lane="K9K10_0" startPos="98.5" endPos="101.5" roadsideCapacity="0" onRoad="false">
        <space x="2022.00" y="1869.60" angle="90.00" width="2.8" length="5.5"/>
        <space x="2022.00" y="1872.80" angle="90.00" width="2.8" length="5.5"/>
        <space x="2022.00" y="1876.00" angle="90.00" width="2.8" length="5.5"/>
        <space x="2022.00" y="1879.20" angle="90.00" width="2.8" length="5.5"/>
        <space x="2022.00" y="1882.40" angle="90.00" width="2.8" length="5.5"/>
        <space x="2022.00" y="1885.60" angle="90.00" width="2.8" length="5.5"/>
        <space x="2022.00" y="1888.80" angle="90.00" width="2.8" length="5.5"/>
        <space x="2022.00" y="1892.00" angle="90.00" width="2.8" length="5.5"/>
        <space x="2022.00" y="1895.20" angle="90.00" width="2.8" length="5.5"/>
        <space x="2022.00" y="1904.80" angle="90.00" width="2.8" length="5.5"/>
        <space x="2022.00" y="1908.00" angle="90.00" width="2.8" length="5.5"/>
        <space x="2022.00" y="1911.20" angle="90.00" width="2.8" length="5.5"/>
        <space x="2022.00" y="1914.40" angle="90.00" width="2.8" length="5.5"/>
        <space x="2022.00" y="1917.60" angle="90.00" width="2.8" length="5.5"/>
        <space x="2022.00" y="1920.80" angle="90.00" width="2.8" length="5.5"/>
        <space x="2022.00" y="1924.00" angle="90.00" width="2.8" length="5.5"/>
        <space x="2022.00" y="1927.20" angle="90.00" width="2.8" length="5.5"/>
        <space x="2022.00" y="1930.40" angle="90.00" width="2.8" length="5.5"/>
        <space x="2045.00" y="1869.60" angle="270.00" width="2.8" length="5.5"/>
        <space x="2045.00" y="1872.80" angle="270.00" width="2.8" length="5.5"/>
        <space x="2045.00" y="1876.00" angle="270.00" width="2.8" length="5.5"/>
        <space x="2045.00" y="1879.20" angle="270.00" width="2.8" length="5.5"/>
        <space x="2045.00" y="1882.40" angle="270.00" width="2.8" length="5.5"/>
        <space x="2045.00" y="1885.60" angle="270.00" width="2.8" length="5.5"/>
        <space x="2045.00" y="1888.80" angle="270.00" width="2.8" length="5.5"/>
        <space x="2045.00" y="1892.00" angle="270.00" width="2.8" length="5.5"/>
        <space x="2045.00" y="1895.20" angle="270.00" width="2.8" length="5.5"/>
        <space x="2045.00" y="1898.40" angle="270.00" width="2.8" length="5.5"/>
        <space x="2045.00" y="1901.60" angle="270.00" width="2.8" length="5.5"/>
        <space x="2045.00" y="1904.80" angle="270.00" width="2.8" length="5.5"/>
        <space x="2045.00" y="1908.00" angle="270.00" width="2.8" length="5.5"/>
        <space x="2045.00" y="1911.20" angle="270.00" width="2.8" length="5.5"/>
        <space x="2045.00" y="1914.40" angle="270.00" width="2.8" length="5.5"/>
        <space x="2045.00" y="1917.60" angle="270.00" width="2.8" length="5.5"/>
        <space x="2045.00" y="1920.80" angle="270.00" width="2.8" length="5.5"/>
        <space x="2045.00" y="1924.00" angle="270.00" width="2.8" length="5.5"/>
        <space x="2045.00" y="1927.20" angle="270.00" width="2.8" length="5.5"/>
        <space x="2045.00" y="1930.40" angle="270.00" width="2.8" length="5.5"/>
    </parkingArea>
    <poly id="floor_off_street_5" color="40,40,40" fill="true" layer="0" shape="412.00,465.00 455.00,465.00 455.00,535.00 412.00,535.00"/>
    <poly id="driveway_off_street_5" color="40,40,40" fill="true" layer="1" shape="405.00,496.00 412.00,496.00 412.00,504.00 405.00,504.00"/>
    <poly id="wall_off_street_5" color="200,200,200" fill="false" lineWidth="2" layer="2" shape="412.00,496.00 412.00,465.00 455.00,465.00 455.00,535.00 412.00,535.00 412.00,504.00"/>
    <parkingArea id="off_street_5" lane="C2C3_0" startPos="98.5" endPos="101.5" roadsideCapacity="0" onRoad="false">
        <space x="422.00" y="469.60" angle="90.00" width="2.8" length="5.5"/>
        <space x="422.00" y="472.80" angle="90.00" width="2.8" length="5.5"/>
        <space x="422.00" y="476.00" angle="90.00" width="2.8" length="5.5"/>
        <space x="422.00" y="479.20" angle="90.00" width="2.8" length="5.5"/>
        <space x="422.00" y="482.40" angle="90.00" width="2.8" length="5.5"/>
        <space x="422.00" y="485.60" angle="90.00" width="2.8" length="5.5"/>
        <space x="422.00" y="488.80" angle="90.00" width="2.8" length="5.5"/>
        <space x="422.00" y="492.00" angle="90.00" width="2.8" length="5.5"/>
        <space x="422.00" y="495.20" angle="90.00" width="2.8" length="5.5"/>
        <space x="422.00" y="504.80" angle="90.00" width="2.8" length="5.5"/>
        <space x="422.00" y="508.00" angle="90.00" width="2.8" length="5.5"/>
        <space x="422.00" y="511.20" angle="90.00" width="2.8" length="5.5"/>
        <space x="422.00" y="514.40" angle="90.00" width="2.8" length="5.5"/>
        <space x="422.00" y="517.60" angle="90.00" width="2.8" length="5.5"/>
        <space x="422.00" y="520.80" angle="90.00" width="2.8" length="5.5"/>
        <space x="422.00" y="524.00" angle="90.00" width="2.8" length="5.5"/>
        <space x="422.00" y="527.20" angle="90.00" width="2.8" length="5.5"/>
        <space x="422.00" y="530.40" angle="90.00" width="2.8" length="5.5"/>
        <space x="445.00" y="469.60" angle="270.00" width="2.8" length="5.5"/>
        <space x="445.00" y="472.80" angle="270.00" width="2.8" length="5.5"/>
        <space x="445.00" y="476.00" angle="270.00" width="2.8" length="5.5"/>
        <space x="445.00" y="479.20" angle="270.00" width="2.8" length="5.5"/>
        <space x="445.00" y="482.40" angle="270.00" width="2.8" length="5.5"/>
        <space x="445.00" y="485.60" angle="270.00" width="2.8" length="5.5"/>
        <space x="445.00" y="488.80" angle="270.00" width="2.8" length="5.5"/>
        <space x="445.00" y="492.00" angle="270.00" width="2.8" length="5.5"/>
        <space x="445.00" y="495.20" angle="270.00" width="2.8" length="5.5"/>
        <space x="445.00" y="498.40" angle="270.00" width="2.8" length="5.5"/>
        <space x="445.00" y="501.60" angle="270.00" width="2.8" length="5.5"/>
        <space x="445.00" y="504.80" angle="270.00" width="2.8" length="5.5"/>
        <space x="445.00" y="508.00" angle="270.00" width="2.8" length="5.5"/>
        <space x="445.00" y="511.20" angle="270.00" width="2.8" length="5.5"/>
        <space x="445.00" y="514.40" angle="270.00" width="2.8" length="5.5"/>
        <space x="445.00" y="517.60" angle="270.00" width="2.8" length="5.5"/>
        <space x="445.00" y="520.80" angle="270.00" width="2.8" length="5.5"/>
        <space x="445.00" y="524.00" angle="270.00" width="2.8" length="5.5"/>
        <space x="445.00" y="527.20" angle="270.00" width="2.8" length="5.5"/>
        <space x="445.00" y="530.40" angle="270.00" width="2.8" length="5.5"/>
    </parkingArea>
    <poly id="floor_off_street_6" color="40,40,40" fill="true" layer="0" shape="65.00,2188.00 65.00,2145.00 135.00,2145.00 135.00,2188.00"/>
    <poly id="driveway_off_street_6" color="40,40,40" fill="true" layer="1" shape="96.00,2195.00 96.00,2188.00 104.00,2188.00 104.00,2195.00"/>
    <poly id="wall_off_street_6" color="200,200,200" fill="false" lineWidth="2" layer="2" shape="96.00,2188.00 65.00,2188.00 65.00,2145.00 135.00,2145.00 135.00,2188.00 104.00,2188.00"/>
    <parkingArea id="off_street_6" lane="A11B11_0" startPos="98.5" endPos="101.5" roadsideCapacity="0" onRoad="false">
        <space x="69.60" y="2178.00" angle="180.00" width="2.8" length="5.5"/>
        <space x="72.80" y="2178.00" angle="180.00" width="2.8" length="5.5"/>
        <space x="76.00" y="2178.00" angle="180.00" width="2.8" length="5.5"/>
        <space x="79.20" y="2178.00" angle="180.00" width="2.8" length="5.5"/>
        <space x="82.40" y="2178.00" angle="180.00" width="2.8" length="5.5"/>
        <space x="85.60" y="2178.00" angle="180.00" width="2.8" length="5.5"/>
        <space x="88.80" y="2178.00" angle="180.00" width="2.8" length="5.5"/>
        <space x="92.00" y="2178.00" angle="180.00" width="2.8" length="5.5"/>
        <space x="95.20" y="2178.00" angle="180.00" width="2.8" length="5.5"/>
        <space x="104.80" y="2178.00" angle="180.00" width="2.8" length="5.5"/>
        <space x="108.00" y="2178.00" angle="180.00" width="2.8" length="5.5"/>
        <space x="111.20" y="2178.00" angle="180.00" width="2.8" length="5.5"/>
        <space x="114.40" y="2178.00" angle="180.00" width="2.8" length="5.5"/>
        <space x="117.60" y="2178.00" angle="180.00" width="2.8" length="5.5"/>
        <space x="120.80" y="2178.00" angle="180.00" width="2.8" length="5.5"/>
        <space x="124.00" y="2178.00" angle="180.00" width="2.8" length="5.5"/>
        <space x="127.20" y="2178.00" angle="180.00" width="2.8" length="5.5"/>
        <space x="130.40" y="2178.00" angle="180.00" width="2.8" length="5.5"/>
        <space x="69.60" y="2155.00" angle="0.00" width="2.8" length="5.5"/>
        <space x="72.80" y="2155.00" angle="0.00" width="2.8" length="5.5"/>
        <space x="76.00" y="2155.00" angle="0.00" width="2.8" length="5.5"/>
        <space x="79.20" y="2155.00" angle="0.00" width="2.8" length="5.5"/>
        <space x="82.40" y="2155.00" angle="0.00" width="2.8" length="5.5"/>
        <space x="85.60" y="2155.00" angle="0.00" width="2.8" length="5.5"/>
        <space x="88.80" y="2155.00" angle="0.00" width="2.8" length="5.5"/>
        <space x="92.00" y="2155.00" angle="0.00" width="2.8" length="5.5"/>
        <space x="95.20" y="2155.00" angle="0.00" width="2.8" length="5.5"/>
        <space x="98.40" y="2155.00" angle="0.00" width="2.8" length="5.5"/>
        <space x="101.60" y="2155.00" angle="0.00" width="2.8" length="5.5"/>
        <space x="104.80" y="2155.00" angle="0.00" width="2.8" length="5.5"/>
        <space x="108.00" y="2155.00" angle="0.00" width="2.8" length="5.5"/>
        <space x="111.20" y="2155.00" angle="0.00" width="2.8" length="5.5"/>
        <space x="114.40" y="2155.00" angle="0.00" width="2.8" length="5.5"/>
        <space x="117.60" y="2155.00" angle="0.00" width="2.8" length="5.5"/>
        <space x="120.80" y="2155.00" angle="0.00" width="2.8" length="5.5"/>
        <space x="124.00" y="2155.00" angle="0.00" width="2.8" length="5.5"/>
        <space x="127.20" y="2155.00" angle="0.00" width="2.8" length="5.5"/>
        <space x="130.40" y="2155.00" angle="0.00" width="2.8" length="5.5"/>
    </parkingArea>
    <poly id="floor_off_street_7" color="40,40,40" fill="true" layer="0" shape="935.00,2412.00 935.00,2455.00 865.00,2455.00 865.00,2412.00"/>
    <poly id="driveway_off_street_7" color="40,40,40" fill="true" layer="1" shape="904.00,2405.00 904.00,2412.00 896.00,2412.00 896.00,2405.00"/>
    <poly id="wall_off_street_7" color="200,200,200" fill="false" lineWidth="2" layer="2" shape="904.00,2412.00 935.00,2412.00 935.00,2455.00 865.00,2455.00 865.00,2412.00 896.00,2412.00"/>
    <parkingArea id="off_street_7" lane="F12E12_0" startPos="98.5" endPos="101.5" roadsideCapacity="0" onRoad="false">
        <space x="930.40" y="2422.00" angle="0.00" width="2.8" length="5.5"/>
        <space x="927.20" y="2422.00" angle="0.00" width="2.8" length="5.5"/>
        <space x="924.00" y="2422.00" angle="0.00" width="2.8" length="5.5"/>
        <space x="920.80" y="2422.00" angle="0.00" width="2.8" length="5.5"/>
        <space x="917.60" y="2422.00" angle="0.00" width="2.8" length="5.5"/>
        <space x="914.40" y="2422.00" angle="0.00" width="2.8" length="5.5"/>
        <space x="911.20" y="2422.00" angle="0.00" width="2.8" length="5.5"/>
        <space x="908.00" y="2422.00" angle="0.00" width="2.8" length="5.5"/>
        <space x="904.80" y="2422.00" angle="0.00" width="2.8" length="5.5"/>
        <space x="895.20" y="2422.00" angle="0.00" width="2.8" length="5.5"/>
        <space x="892.00" y="2422.00" angle="0.00" width="2.8" length="5.5"/>
        <space x="888.80" y="2422.00" angle="0.00" width="2.8" length="5.5"/>
        <space x="885.60" y="2422.00" angle="0.00" width="2.8" length="5.5"/>
        <space x="882.40" y="2422.00" angle="0.00" width="2.8" length="5.5"/>
        <space x="879.20" y="2422.00" angle="0.00" width="2.8" length="5.5"/>
        <space x="876.00" y="2422.00" angle="0.00" width="2.8" length="5.5"/>
        <space x="872.80" y="2422.00" angle="0.00" width="2.8" length="5.5"/>
        <space x="869.60" y="2422.00" angle="0.00" width="2.8" length="5.5"/>
        <space x="930.40" y="2445.00" angle="180.00" width="2.8" length="5.5"/>
        <space x="927.20" y="2445.00" angle="180.00" width="2.8" length="5.5"/>
        <space x="924.00" y="2445.00" angle="180.00" width="2.8" length="5.5"/>
        <space x="920.80" y="2445.00" angle="180.00" width="2.8" length="5.5"/>
        <space x="917.60" y="2445.00" angle="180.00" width="2.8" length="5.5"/>
        <space x="914.40" y="2445.00" angle="180.00" width="2.8" length="5.5"/>
        <space x="911.20" y="2445.00" angle="180.00" width="2.8" length="5.5"/>
        <space x="908.00" y="2445.00" angle="180.00" width="2.8" length="5.5"/>
        <space x="904.80" y="2445.00" angle="180.00" width="2.8" length="5.5"/>
        <space x="901.60" y="2445.00" angle="180.00" width="2.8" length="5.5"/>
        <space x="898.40" y="2445.00" angle="180.00" width="2.8" length="5.5"/>
        <space x="895.20" y="2445.00" angle="180.00" width="2.8" length="5.5"/>
        <space x="892.00" y="2445.00" angle="180.00" width="2.8" length="5.5"/>
        <space x="888.80" y="2445.00" angle="180.00" width="2.8" length="5.5"/>
        <space x="885.60" y="2445.00" angle="180.00" width="2.8" length="5.5"/>
        <space x="882.40" y="2445.00" angle="180.00" width="2.8" length="5.5"/>
        <space x="879.20" y="2445.00" angle="180.00" width="2.8" length="5.5"/>
        <space x="876.00" y="2445.00" angle="180.00" width="2.8" length="5.5"/>
        <space x="872.80" y="2445.00" angle="180.00" width="2.8" length="5.5"/>
        <space x="869.60" y="2445.00" angle="180.00" width="2.8" length="5.5"/>
    </parkingArea>
    <poly id="floor_off_street_8" color="40,40,40" fill="true" layer="0" shape="1988.00,2335.00 1945.00,2335.00 1945.00,2265.00 1988.00,2265.00"/>
    <poly id="driveway_off_street_8" color="40,40,40" fill="true" layer="1" shape="1995.00,2304.00 1988.00,2304.00 1988.00,2296.00 1995.00,2296.00"/>
    <poly id="wall_off_street_8" color="200,200,200" fill="false" lineWidth="2" layer="2" shape="1988.00,2304.00 1988.00,2335.00 1945.00,2335.00 1945.00,2265.00 1988.00,2265.00 1988.00,2296.00"/>
    <parkingArea id="off_street_8" lane="K12K11_0" startPos="98.5" endPos="101.5" roadsideCapacity="0" onRoad="false">
        <space x="1978.00" y="2330.40" angle="270.00" width="2.8" length="5.5"/>
        <space x="1978.00" y="2327.20" angle="270.00" width="2.8" length="5.5"/>
        <space x="1978.00" y="2324.00" angle="270.00" width="2.8" length="5.5"/>
        <space x="1978.00" y="2320.80" angle="270.00" width="2.8" length="5.5"/>